file 839617 1731597644                                          
version 3
run General-0-20241114-16:20:22-23917
attr configname General
attr datetime 20241114-16:20:22
attr datetimef 20241114-162022
attr experiment General
attr inifile omnetpp.ini
attr iterationvars "$0=\"avg\""
attr iterationvarsd avg
attr iterationvarsf avg-
attr measurement "$0=\"avg\""
attr network LoRaWANNetwork
attr processid 23917
attr repetition 0
attr replication #0
attr resultdir results
attr runnumber 0
attr seedset 0
config image-path ../inet4.4/images
config network LoRaWANNetwork
config **.loRaNodes[0].initialX 3055.90m
config **.loRaNodes[0].initialY 4552.40m
config **.loRaNodes[1].initialX 4571.85m
config **.loRaNodes[1].initialY 6909.47m
config **.loRaNodes[2].initialX 8217.18m
config **.loRaNodes[2].initialY 8374.84m
config **.loRaNodes[3].initialX 3302.08m
config **.loRaNodes[3].initialY 8721.90m
config **.loRaNodes[4].initialX 6781.95m
config **.loRaNodes[4].initialY 2173.67m
config **.loRaNodes[5].initialX 2473.36m
config **.loRaNodes[5].initialY 3747.82m
config **.loRaNodes[6].initialX 1192.11m
config **.loRaNodes[6].initialY 2035.40m
config **.loRaNodes[7].initialX 8938.14m
config **.loRaNodes[7].initialY 7554.15m
config **.loRaNodes[8].initialX 2632.87m
config **.loRaNodes[8].initialY 9583.17m
config **.loRaNodes[9].initialX 8029.79m
config **.loRaNodes[9].initialY 2058.24m
config **.loRaNodes[10].initialX 4872.81m
config **.loRaNodes[10].initialY 2084.51m
config **.loRaNodes[11].initialX 3682.75m
config **.loRaNodes[11].initialY 9988.78m
config **.loRaNodes[12].initialX 5217.48m
config **.loRaNodes[12].initialY 1836.88m
config **.loRaNodes[13].initialX 344.40m
config **.loRaNodes[13].initialY 8060.27m
config **.loRaNodes[14].initialX 8460.49m
config **.loRaNodes[14].initialY 1688.34m
config **.loRaNodes[15].initialX 3789.56m
config **.loRaNodes[15].initialY 1516.39m
config **.loRaNodes[16].initialX 6240.74m
config **.loRaNodes[16].initialY 8361.41m
config **.loRaNodes[17].initialX 8425.86m
config **.loRaNodes[17].initialY 4457.92m
config **.loRaNodes[18].initialX 6736.25m
config **.loRaNodes[18].initialY 1727.94m
config **.loRaNodes[19].initialX 3179.82m
config **.loRaNodes[19].initialY 3518.19m
config **.loRaNodes[20].initialX 3901.61m
config **.loRaNodes[20].initialY 5653.18m
config **.loRaNodes[21].initialX 7266.02m
config **.loRaNodes[21].initialY 5093.71m
config **.loRaNodes[22].initialX 7688.58m
config **.loRaNodes[22].initialY 6204.16m
config **.loRaNodes[23].initialX 2647.86m
config **.loRaNodes[23].initialY 321.45m
config **.loRaNodes[24].initialX 5787.33m
config **.loRaNodes[24].initialY 677.65m
config **.loRaNodes[25].initialX 2379.69m
config **.loRaNodes[25].initialY 660.14m
config **.loRaNodes[26].initialX 2762.16m
config **.loRaNodes[26].initialY 6062.44m
config **.loRaNodes[27].initialX 648.93m
config **.loRaNodes[27].initialY 7979.65m
config **.loRaNodes[28].initialX 7899.32m
config **.loRaNodes[28].initialY 993.33m
config **.loRaNodes[29].initialX 6039.92m
config **.loRaNodes[29].initialY 6359.81m
config **.loRaNodes[30].initialX 2681.67m
config **.loRaNodes[30].initialY 9829.48m
config **.loRaNodes[31].initialX 7876.20m
config **.loRaNodes[31].initialY 8922.42m
config **.loRaNodes[32].initialX 8190.90m
config **.loRaNodes[32].initialY 6302.06m
config **.loRaNodes[33].initialX 3380.34m
config **.loRaNodes[33].initialY 4927.14m
config **.loRaNodes[34].initialX 8030.00m
config **.loRaNodes[34].initialY 6560.16m
config **.loRaNodes[35].initialX 8445.34m
config **.loRaNodes[35].initialY 1931.60m
config **.loRaNodes[36].initialX 2213.33m
config **.loRaNodes[36].initialY 5711.35m
config **.loRaNodes[37].initialX 7025.32m
config **.loRaNodes[37].initialY 9901.91m
config **.loRaNodes[38].initialX 1915.51m
config **.loRaNodes[38].initialY 9673.18m
config **.loRaNodes[39].initialX 223.36m
config **.loRaNodes[39].initialY 7702.84m
config **.loRaNodes[40].initialX 350.83m
config **.loRaNodes[40].initialY 2603.05m
config **.loRaNodes[41].initialX 8362.99m
config **.loRaNodes[41].initialY 3112.99m
config **.loRaNodes[42].initialX 8665.48m
config **.loRaNodes[42].initialY 9011.91m
config **.loRaNodes[43].initialX 1092.64m
config **.loRaNodes[43].initialY 6564.80m
config **.loRaNodes[44].initialX 5.24m
config **.loRaNodes[44].initialY 7132.56m
config **.loRaNodes[45].initialX 2924.61m
config **.loRaNodes[45].initialY 2686.92m
config **.loRaNodes[46].initialX 6962.04m
config **.loRaNodes[46].initialY 800.81m
config **.loRaNodes[47].initialX 1609.33m
config **.loRaNodes[47].initialY 5152.94m
config **.loRaNodes[48].initialX 7102.86m
config **.loRaNodes[48].initialY 4989.67m
config **.loRaNodes[49].initialX 80.08m
config **.loRaNodes[49].initialY 5132.86m
config **.loRaNodes[50].initialX 1549.82m
config **.loRaNodes[50].initialY 8525.41m
config **.loRaNodes[51].initialX 7064.46m
config **.loRaNodes[51].initialY 3763.16m
config **.loRaNodes[52].initialX 4236.77m
config **.loRaNodes[52].initialY 4089.78m
config **.loRaNodes[53].initialX 3665.07m
config **.loRaNodes[53].initialY 6152.28m
config **.loRaNodes[54].initialX 3762.95m
config **.loRaNodes[54].initialY 3888.43m
config **.loRaNodes[55].initialX 3855.13m
config **.loRaNodes[55].initialY 4113.78m
config **.loRaNodes[56].initialX 6491.47m
config **.loRaNodes[56].initialY 2218.11m
config **.loRaNodes[57].initialX 7226.77m
config **.loRaNodes[57].initialY 5156.96m
config **.loRaNodes[58].initialX 1230.03m
config **.loRaNodes[58].initialY 8319.41m
config **.loRaNodes[59].initialX 1721.76m
config **.loRaNodes[59].initialY 1235.27m
config **.loRaNodes[60].initialX 5451.96m
config **.loRaNodes[60].initialY 4646.36m
config **.loRaNodes[61].initialX 3922.18m
config **.loRaNodes[61].initialY 2414.00m
config **.loRaNodes[62].initialX 5447.17m
config **.loRaNodes[62].initialY 5531.51m
config **.loRaNodes[63].initialX 7566.94m
config **.loRaNodes[63].initialY 2550.03m
config **.loRaNodes[64].initialX 521.18m
config **.loRaNodes[64].initialY 7647.02m
config **.loRaNodes[65].initialX 7682.89m
config **.loRaNodes[65].initialY 2071.01m
config **.loRaNodes[66].initialX 6172.43m
config **.loRaNodes[66].initialY 4747.36m
config **.loRaNodes[67].initialX 5834.16m
config **.loRaNodes[67].initialY 409.20m
config **.loRaNodes[68].initialX 8837.13m
config **.loRaNodes[68].initialY 9499.23m
config **.loRaNodes[69].initialX 6561.48m
config **.loRaNodes[69].initialY 2600.09m
config **.loRaNodes[70].initialX 3387.66m
config **.loRaNodes[70].initialY 416.60m
config **.loRaNodes[71].initialX 6713.87m
config **.loRaNodes[71].initialY 9879.13m
config **.loRaNodes[72].initialX 2634.72m
config **.loRaNodes[72].initialY 3940.64m
config **.loRaNodes[73].initialX 5036.09m
config **.loRaNodes[73].initialY 3864.74m
config **.loRaNodes[74].initialX 2260.04m
config **.loRaNodes[74].initialY 6757.84m
config **.loRaNodes[75].initialX 5100.01m
config **.loRaNodes[75].initialY 7712.00m
config **.loRaNodes[76].initialX 1404.21m
config **.loRaNodes[76].initialY 9022.19m
config **.loRaNodes[77].initialX 126.01m
config **.loRaNodes[77].initialY 6851.38m
config **.loRaNodes[78].initialX 4553.71m
config **.loRaNodes[78].initialY 7692.94m
config **.loRaNodes[79].initialX 9401.41m
config **.loRaNodes[79].initialY 5074.89m
config **.loRaNodes[80].initialX 5339.96m
config **.loRaNodes[80].initialY 7084.30m
config **.loRaNodes[81].initialX 7145.90m
config **.loRaNodes[81].initialY 1512.39m
config **.loRaNodes[82].initialX 1831.66m
config **.loRaNodes[82].initialY 2980.07m
config **.loRaNodes[83].initialX 1921.59m
config **.loRaNodes[83].initialY 668.79m
config **.loRaNodes[84].initialX 2479.30m
config **.loRaNodes[84].initialY 8483.07m
config **.loRaNodes[85].initialX 3268.88m
config **.loRaNodes[85].initialY 5866.96m
config **.loRaNodes[86].initialX 8899.67m
config **.loRaNodes[86].initialY 9982.74m
config **.loRaNodes[87].initialX 5746.09m
config **.loRaNodes[87].initialY 1534.39m
config **.loRaNodes[88].initialX 3923.38m
config **.loRaNodes[88].initialY 782.18m
config **.loRaNodes[89].initialX 5399.13m
config **.loRaNodes[89].initialY 6183.42m
config **.loRaNodes[90].initialX 7540.02m
config **.loRaNodes[90].initialY 499.14m
config **.loRaNodes[91].initialX 3895.42m
config **.loRaNodes[91].initialY 8944.23m
config **.loRaNodes[92].initialX 9521.34m
config **.loRaNodes[92].initialY 4021.43m
config **.loRaNodes[93].initialX 5795.60m
config **.loRaNodes[93].initialY 4075.05m
config **.loRaNodes[94].initialX 1714.37m
config **.loRaNodes[94].initialY 5197.01m
config **.loRaNodes[95].initialX 9149.94m
config **.loRaNodes[95].initialY 7054.33m
config **.loRaNodes[96].initialX 2281.32m
config **.loRaNodes[96].initialY 6295.84m
config **.loRaNodes[97].initialX 8566.72m
config **.loRaNodes[97].initialY 4112.97m
config **.loRaNodes[98].initialX 9275.90m
config **.loRaNodes[98].initialY 488.31m
config **.loRaNodes[99].initialX 4781.76m
config **.loRaNodes[99].initialY 1755.20m
config **.loRaGW[0].initialX 1994.95
config **.loRaGW[0].initialY 5525.89
config **.loRaGW[1].initialX 6493.96
config **.loRaGW[1].initialY 2431.76
config **.loRaGW[2].initialX 6284.79
config **.loRaGW[2].initialY 8085.98
config **.maxTransmissionDuration 4s
config **.energyDetection -110dBm
config **.display true
config **.vector-recording true
config rng-class cMersenneTwister
config **.loRaGW[*].numUdpApps 5
config **.loRaGW[*].packetForwarder.localPort 2000
config **.loRaGW[*].packetForwarder.destPort 1000
config **.loRaGW[0].packetForwarder.destAddresses "\"networkServer\""
config **.loRaGW[0].packetForwarder.indexNumber 0
config **.networkServer.numApps 1
config **.networkServer.**.evaluateADRinServer true
config **.networkServer.app[0].typename NetworkServerApp
config **.networkServer.app[0].destAddresses "\"loRaGW[0]\""
config **.networkServer.app[0].destPort 2000
config **.networkServer.app[0].localPort 1000
config **.networkServer.app[0].adrMethod "\"avg\""
config **.numberOfPacketsToSend 0
config sim-time-limit 1d
config simtime-resolution -11
config repeat 30
config **.timeToFirstPacket exponential(1000s)
config **.timeToNextPacket exponential(1000s)
config **.alohaChannelModel false
config **.numberOfNodes 100
config **.constraintAreaMaxX 10000m
config **.constraintAreaMaxY 10000m
config **.loRaNodes[*].**.initialX "uniform(constraintAreaMinX, constraintAreaMaxX)"
config **.loRaNodes[*].**.initialY "uniform(constraintAreaMinY, constraintAreaMaxY)"
config **.loRaNodes[*].**initialLoRaSF 12
config **.loRaNodes[*].**initialLoRaTP 14dBm
config **.loRaNodes[*].**initialLoRaBW "125 kHz"
config **.loRaNodes[*].**initialLoRaCR 4
config **.loRaNodes[*].**.initFromDisplayString false
config **.loRaNodes[*].**.evaluateADRinNode true
config **.loRaNodes[*].numApps 1
config **.loRaNodes[*].app[0].typename SimpleLoRaApp
config **.numberOfGateways 5
config **.LoRaGWNic.radio.iAmGateway true
config **.loRaGW[*].**.initFromDisplayString false
config **.loRaNodes[*].LoRaNic.radio.energyConsumer.typename LoRaEnergyConsumer
config **.loRaNodes[*].**.energySourceModule "\"^.IdealEpEnergyStorage\""
config **.loRaNodes[*].LoRaNic.radio.energyConsumer.configFile "xmldoc(\"energyConsumptionParameters.xml\")"
config **.sigma 3.57
config **.constraintAreaMinX 0m
config **.constraintAreaMinY 0m
config **.constraintAreaMinZ 0m
config **.constraintAreaMaxZ 0m
config LoRaNetworkTest.**.radio.separateTransmissionParts false
config LoRaNetworkTest.**.radio.separateReceptionParts false
config **.ipv4Delayer.config "xmldoc(\"cloudDelays.xml\")"
config **.radio.radioMediumModule "\"LoRaMedium\""
config **.LoRaMedium.pathLossType "\"LoRaLogNormalShadowing\""
config **.minInterferenceTime 0s
config **.displayAddresses false
config **.LoRaMedium.mediumLimitCacheType "\"LoRaMediumCache\""
config **.LoRaMedium.rangeFilter "\"communicationRange\""
config **.LoRaMedium.neighborCacheType "\"LoRaNeighborCache\""
config **.LoRaMedium.neighborCache.range 546m
config **.LoRaMedium.neighborCache.refillPeriod 3000s
config **.radioMedium.obstacleLossModel "\"DielectricObstacleLoss\""
config **.radioMedium.obstacleLossModel.permittivity 5.0
config **.radioMedium.obstacleLossModel.conductivity 0.02

vector 0 LoRaWANNetwork.loRaNodes[0].LoRaNic.queue queueLength:vector ETV
attr autoWarmupFilter false
attr interpolationmode sample-hold
attr recordingmode vector
attr source "warmup(atomic(constant0(packetPushEnded) + count(packetPushStarted) - count(packetPulled) - count(packetRemoved) - count(packetDropped)))"
attr title "queue length"
attr unit pk
vector 1 LoRaWANNetwork.loRaNodes[0].LoRaNic.queue queueBitLength:vector ETV
attr autoWarmupFilter false
attr interpolationmode sample-hold
attr recordingmode vector
attr source "warmup(atomic(constant0(packetPushEnded) + sum(packetLength(packetPushStarted)) - sum(packetLength(packetPulled)) - sum(packetLength(packetRemoved)) - sum(packetLength(packetDropped))))"
attr title "queue bit length"
attr unit b
vector 2 LoRaWANNetwork.loRaNodes[0].LoRaNic.queue queueingTime:vector ETV
attr interpolationmode none
attr recordingmode vector
attr source queueingTime(packetPulled)
attr title "queueing times"
attr unit s
vector 3 LoRaWANNetwork.loRaNodes[0].LoRaNic.queue incomingPacketLengths:vector ETV
attr interpolationmode none
attr recordingmode vector
attr source packetLength(packetPushStarted)
attr title "incoming packet lengths"
attr unit b
vector 4 LoRaWANNetwork.loRaNodes[0].LoRaNic.queue incomingDataRate:vector ETV
attr interpolationmode linear
attr recordingmode vector
attr source throughput(packetPushStarted)
attr title "incoming datarate"
attr unit bps
vector 5 LoRaWANNetwork.loRaNodes[0].LoRaNic.queue outgoingPacketLengths:vector ETV
attr interpolationmode none
attr recordingmode vector
attr source packetLength(packetPulled)
attr title "outgoing packet lengths"
attr unit b
vector 6 LoRaWANNetwork.loRaNodes[0].LoRaNic.queue outgoingDataRate:vector ETV
attr interpolationmode linear
attr recordingmode vector
attr source throughput(packetPulled)
attr title "outgoing datarate"
attr unit bps
vector 7 LoRaWANNetwork.loRaNodes[0].LoRaNic.queue droppedPacketLengthsQueueOverflow:vector ETV
attr interpolationmode none
attr recordingmode vector
attr source packetLength(packetDropReasonIsQueueOverflow(packetDropped))
attr title "dropped packet lengths: queue overflow"
attr unit b
vector 8 LoRaWANNetwork.loRaNodes[0].LoRaNic.queue flowQueueingTime:vector ETV
attr interpolationmode none
attr recordingmode vector
attr source queueingTime(demuxFlow(packetPulled))
attr title "flow queueing times"
attr unit s
vector 9 LoRaWANNetwork.loRaNodes[0].LoRaNic.queue flowIncomingDataRate:vector ETV
attr interpolationmode linear
attr recordingmode vector
attr source throughput(flowPacketLength(demuxFlow(packetPushStarted)))
attr title "flow specific incoming data rate"
attr unit bps
vector 10 LoRaWANNetwork.loRaNodes[0].LoRaNic.queue flowOutgoingDataRate:vector ETV
attr interpolationmode linear
attr recordingmode vector
attr source throughput(flowPacketLength(demuxFlow(packetPulled)))
attr title "flow specific outgoing data rate"
attr unit bps
vector 11 LoRaWANNetwork.loRaNodes[0].LoRaNic.mac packetDropIncorrectlyReceived:vector(packetBytes) ETV
attr interpolationmode none
attr recordingmode vector(packetBytes)
attr source packetDropReasonIsIncorrectlyReceived(packetDropped)
attr title "packet drop: incorrectly received, packetBytes"
vector 12 LoRaWANNetwork.loRaNodes[0].LoRaNic.mac packetDropNotAddressedToUs:vector(packetBytes) ETV
attr interpolationmode none
attr recordingmode vector(packetBytes)
attr source packetDropReasonIsNotAddressedToUs(packetDropped)
attr title "packet drop: not addressed to us, packetBytes"
vector 13 LoRaWANNetwork.loRaNodes[0].LoRaNic.mac packetDropQueueOverflow:vector(packetBytes) ETV
attr interpolationmode none
attr recordingmode vector(packetBytes)
attr source packetDropReasonIsQueueOverflow(packetDropped)
attr title "packet drop: queue overflow, packetBytes"
vector 14 LoRaWANNetwork.loRaNodes[0].LoRaNic.mac packetDropRetryLimitReached:vector(packetBytes) ETV
attr interpolationmode none
attr recordingmode vector(packetBytes)
attr source packetDropReasonIsRetryLimitReached(packetDropped)
attr title "packet drop: retry limit reached, packetBytes"
vector 15 LoRaWANNetwork.loRaNodes[0].LoRaNic.radio.energyConsumer powerConsumption:vector ETV
attr interpolationmode sample-hold
attr recordingmode vector
attr source powerConsumptionChanged
attr title "Power consumption"
vector 16 LoRaWANNetwork.loRaNodes[0].LoRaNic.radio.IdealEpEnergyStorage powerConsumption:vector ETV
attr interpolationmode sample-hold
attr recordingmode vector
attr source powerConsumptionChanged
attr title "Power consumption"
vector 17 LoRaWANNetwork.loRaNodes[0].LoRaNic.radio.IdealEpEnergyStorage powerGeneration:vector ETV
attr interpolationmode sample-hold
attr recordingmode vector
attr source powerGenerationChanged
attr title "Power generation"
vector 18 LoRaWANNetwork.loRaNodes[0].LoRaNic.radio.IdealEpEnergyStorage residualEnergyCapacity:vector ETV
attr interpolationmode linear
attr recordingmode vector
attr source residualEnergyCapacityChanged
attr title "Residual energy capacity"
vector 19 LoRaWANNetwork.loRaNodes[0].LoRaNic.radio radioMode:vector ETV
attr interpolationmode sample-hold
attr recordingmode vector
attr source radioModeChanged
attr title "Radio mode"
vector 20 LoRaWANNetwork.loRaNodes[0].LoRaNic.radio receptionState:vector ETV
attr interpolationmode sample-hold
attr recordingmode vector
attr source receptionStateChanged
attr title "Radio reception state"
vector 21 LoRaWANNetwork.loRaNodes[0].LoRaNic.radio transmissionState:vector ETV
attr interpolationmode sample-hold
attr recordingmode vector
attr source transmissionStateChanged
attr title "Radio transmission state"
vector 22 LoRaWANNetwork.loRaNodes[0].LoRaNic packetDropInterfaceDown:vector(packetBytes) ETV
attr interpolationmode none
attr recordingmode vector(packetBytes)
attr source packetDropReasonIsInterfaceDown(packetDropped)
attr title "packet drops: interface down, packetBytes"
vector 23 LoRaWANNetwork.loRaNodes[0].LoRaNic packetDropNoCarrier:vector(packetBytes) ETV
attr interpolationmode none
attr recordingmode vector(packetBytes)
attr source packetDropReasonIsNoCarrier(packetDropped)
attr title "packet drops: no carrier, packetBytes"
vector 24 LoRaWANNetwork.loRaNodes[1].LoRaNic.queue queueLength:vector ETV
attr autoWarmupFilter false
attr interpolationmode sample-hold
attr recordingmode vector
attr source "warmup(atomic(constant0(packetPushEnded) + count(packetPushStarted) - count(packetPulled) - count(packetRemoved) - count(packetDropped)))"
attr title "queue length"
attr unit pk
vector 25 LoRaWANNetwork.loRaNodes[1].LoRaNic.queue queueBitLength:vector ETV
attr autoWarmupFilter false
attr interpolationmode sample-hold
attr recordingmode vector
attr source "warmup(atomic(constant0(packetPushEnded) + sum(packetLength(packetPushStarted)) - sum(packetLength(packetPulled)) - sum(packetLength(packetRemoved)) - sum(packetLength(packetDropped))))"
attr title "queue bit length"
attr unit b
vector 26 LoRaWANNetwork.loRaNodes[1].LoRaNic.queue queueingTime:vector ETV
attr interpolationmode none
attr recordingmode vector
attr source queueingTime(packetPulled)
attr title "queueing times"
attr unit s
vector 27 LoRaWANNetwork.loRaNodes[1].LoRaNic.queue incomingPacketLengths:vector ETV
attr interpolationmode none
attr recordingmode vector
attr source packetLength(packetPushStarted)
attr title "incoming packet lengths"
attr unit b
vector 28 LoRaWANNetwork.loRaNodes[1].LoRaNic.queue incomingDataRate:vector ETV
attr interpolationmode linear
attr recordingmode vector
attr source throughput(packetPushStarted)
attr title "incoming datarate"
attr unit bps
vector 29 LoRaWANNetwork.loRaNodes[1].LoRaNic.queue outgoingPacketLengths:vector ETV
attr interpolationmode none
attr recordingmode vector
attr source packetLength(packetPulled)
attr title "outgoing packet lengths"
attr unit b
vector 30 LoRaWANNetwork.loRaNodes[1].LoRaNic.queue outgoingDataRate:vector ETV
attr interpolationmode linear
attr recordingmode vector
attr source throughput(packetPulled)
attr title "outgoing datarate"
attr unit bps
vector 31 LoRaWANNetwork.loRaNodes[1].LoRaNic.queue droppedPacketLengthsQueueOverflow:vector ETV
attr interpolationmode none
attr recordingmode vector
attr source packetLength(packetDropReasonIsQueueOverflow(packetDropped))
attr title "dropped packet lengths: queue overflow"
attr unit b
vector 32 LoRaWANNetwork.loRaNodes[1].LoRaNic.queue flowQueueingTime:vector ETV
attr interpolationmode none
attr recordingmode vector
attr source queueingTime(demuxFlow(packetPulled))
attr title "flow queueing times"
attr unit s
vector 33 LoRaWANNetwork.loRaNodes[1].LoRaNic.queue flowIncomingDataRate:vector ETV
attr interpolationmode linear
attr recordingmode vector
attr source throughput(flowPacketLength(demuxFlow(packetPushStarted)))
attr title "flow specific incoming data rate"
attr unit bps
vector 34 LoRaWANNetwork.loRaNodes[1].LoRaNic.queue flowOutgoingDataRate:vector ETV
attr interpolationmode linear
attr recordingmode vector
attr source throughput(flowPacketLength(demuxFlow(packetPulled)))
attr title "flow specific outgoing data rate"
attr unit bps
vector 35 LoRaWANNetwork.loRaNodes[1].LoRaNic.mac packetDropIncorrectlyReceived:vector(packetBytes) ETV
attr interpolationmode none
attr recordingmode vector(packetBytes)
attr source packetDropReasonIsIncorrectlyReceived(packetDropped)
attr title "packet drop: incorrectly received, packetBytes"
vector 36 LoRaWANNetwork.loRaNodes[1].LoRaNic.mac packetDropNotAddressedToUs:vector(packetBytes) ETV
attr interpolationmode none
attr recordingmode vector(packetBytes)
attr source packetDropReasonIsNotAddressedToUs(packetDropped)
attr title "packet drop: not addressed to us, packetBytes"
vector 37 LoRaWANNetwork.loRaNodes[1].LoRaNic.mac packetDropQueueOverflow:vector(packetBytes) ETV
attr interpolationmode none
attr recordingmode vector(packetBytes)
attr source packetDropReasonIsQueueOverflow(packetDropped)
attr title "packet drop: queue overflow, packetBytes"
vector 38 LoRaWANNetwork.loRaNodes[1].LoRaNic.mac packetDropRetryLimitReached:vector(packetBytes) ETV
attr interpolationmode none
attr recordingmode vector(packetBytes)
attr source packetDropReasonIsRetryLimitReached(packetDropped)
attr title "packet drop: retry limit reached, packetBytes"
vector 39 LoRaWANNetwork.loRaNodes[1].LoRaNic.radio.energyConsumer powerConsumption:vector ETV
attr interpolationmode sample-hold
attr recordingmode vector
attr source powerConsumptionChanged
attr title "Power consumption"
vector 40 LoRaWANNetwork.loRaNodes[1].LoRaNic.radio.IdealEpEnergyStorage powerConsumption:vector ETV
attr interpolationmode sample-hold
attr recordingmode vector
attr source powerConsumptionChanged
attr title "Power consumption"
vector 41 LoRaWANNetwork.loRaNodes[1].LoRaNic.radio.IdealEpEnergyStorage powerGeneration:vector ETV
attr interpolationmode sample-hold
attr recordingmode vector
attr source powerGenerationChanged
attr title "Power generation"
vector 42 LoRaWANNetwork.loRaNodes[1].LoRaNic.radio.IdealEpEnergyStorage residualEnergyCapacity:vector ETV
attr interpolationmode linear
attr recordingmode vector
attr source residualEnergyCapacityChanged
attr title "Residual energy capacity"
vector 43 LoRaWANNetwork.loRaNodes[1].LoRaNic.radio radioMode:vector ETV
attr interpolationmode sample-hold
attr recordingmode vector
attr source radioModeChanged
attr title "Radio mode"
vector 44 LoRaWANNetwork.loRaNodes[1].LoRaNic.radio receptionState:vector ETV
attr interpolationmode sample-hold
attr recordingmode vector
attr source receptionStateChanged
attr title "Radio reception state"
vector 45 LoRaWANNetwork.loRaNodes[1].LoRaNic.radio transmissionState:vector ETV
attr interpolationmode sample-hold
attr recordingmode vector
attr source transmissionStateChanged
attr title "Radio transmission state"
vector 46 LoRaWANNetwork.loRaNodes[1].LoRaNic packetDropInterfaceDown:vector(packetBytes) ETV
attr interpolationmode none
attr recordingmode vector(packetBytes)
attr source packetDropReasonIsInterfaceDown(packetDropped)
attr title "packet drops: interface down, packetBytes"
vector 47 LoRaWANNetwork.loRaNodes[1].LoRaNic packetDropNoCarrier:vector(packetBytes) ETV
attr interpolationmode none
attr recordingmode vector(packetBytes)
attr source packetDropReasonIsNoCarrier(packetDropped)
attr title "packet drops: no carrier, packetBytes"
vector 48 LoRaWANNetwork.loRaNodes[2].LoRaNic.queue queueLength:vector ETV
attr autoWarmupFilter false
attr interpolationmode sample-hold
attr recordingmode vector
attr source "warmup(atomic(constant0(packetPushEnded) + count(packetPushStarted) - count(packetPulled) - count(packetRemoved) - count(packetDropped)))"
attr title "queue length"
attr unit pk
vector 49 LoRaWANNetwork.loRaNodes[2].LoRaNic.queue queueBitLength:vector ETV
attr autoWarmupFilter false
attr interpolationmode sample-hold
attr recordingmode vector
attr source "warmup(atomic(constant0(packetPushEnded) + sum(packetLength(packetPushStarted)) - sum(packetLength(packetPulled)) - sum(packetLength(packetRemoved)) - sum(packetLength(packetDropped))))"
attr title "queue bit length"
attr unit b
vector 50 LoRaWANNetwork.loRaNodes[2].LoRaNic.queue queueingTime:vector ETV
attr interpolationmode none
attr recordingmode vector
attr source queueingTime(packetPulled)
attr title "queueing times"
attr unit s
vector 51 LoRaWANNetwork.loRaNodes[2].LoRaNic.queue incomingPacketLengths:vector ETV
attr interpolationmode none
attr recordingmode vector
attr source packetLength(packetPushStarted)
attr title "incoming packet lengths"
attr unit b
vector 52 LoRaWANNetwork.loRaNodes[2].LoRaNic.queue incomingDataRate:vector ETV
attr interpolationmode linear
attr recordingmode vector
attr source throughput(packetPushStarted)
attr title "incoming datarate"
attr unit bps
vector 53 LoRaWANNetwork.loRaNodes[2].LoRaNic.queue outgoingPacketLengths:vector ETV
attr interpolationmode none
attr recordingmode vector
attr source packetLength(packetPulled)
attr title "outgoing packet lengths"
attr unit b
vector 54 LoRaWANNetwork.loRaNodes[2].LoRaNic.queue outgoingDataRate:vector ETV
attr interpolationmode linear
attr recordingmode vector
attr source throughput(packetPulled)
attr title "outgoing datarate"
attr unit bps
vector 55 LoRaWANNetwork.loRaNodes[2].LoRaNic.queue droppedPacketLengthsQueueOverflow:vector ETV
attr interpolationmode none
attr recordingmode vector
attr source packetLength(packetDropReasonIsQueueOverflow(packetDropped))
attr title "dropped packet lengths: queue overflow"
attr unit b
vector 56 LoRaWANNetwork.loRaNodes[2].LoRaNic.queue flowQueueingTime:vector ETV
attr interpolationmode none
attr recordingmode vector
attr source queueingTime(demuxFlow(packetPulled))
attr title "flow queueing times"
attr unit s
vector 57 LoRaWANNetwork.loRaNodes[2].LoRaNic.queue flowIncomingDataRate:vector ETV
attr interpolationmode linear
attr recordingmode vector
attr source throughput(flowPacketLength(demuxFlow(packetPushStarted)))
attr title "flow specific incoming data rate"
attr unit bps
vector 58 LoRaWANNetwork.loRaNodes[2].LoRaNic.queue flowOutgoingDataRate:vector ETV
attr interpolationmode linear
attr recordingmode vector
attr source throughput(flowPacketLength(demuxFlow(packetPulled)))
attr title "flow specific outgoing data rate"
attr unit bps
vector 59 LoRaWANNetwork.loRaNodes[2].LoRaNic.mac packetDropIncorrectlyReceived:vector(packetBytes) ETV
attr interpolationmode none
attr recordingmode vector(packetBytes)
attr source packetDropReasonIsIncorrectlyReceived(packetDropped)
attr title "packet drop: incorrectly received, packetBytes"
vector 60 LoRaWANNetwork.loRaNodes[2].LoRaNic.mac packetDropNotAddressedToUs:vector(packetBytes) ETV
attr interpolationmode none
attr recordingmode vector(packetBytes)
attr source packetDropReasonIsNotAddressedToUs(packetDropped)
attr title "packet drop: not addressed to us, packetBytes"
vector 61 LoRaWANNetwork.loRaNodes[2].LoRaNic.mac packetDropQueueOverflow:vector(packetBytes) ETV
attr interpolationmode none
attr recordingmode vector(packetBytes)
attr source packetDropReasonIsQueueOverflow(packetDropped)
attr title "packet drop: queue overflow, packetBytes"
vector 62 LoRaWANNetwork.loRaNodes[2].LoRaNic.mac packetDropRetryLimitReached:vector(packetBytes) ETV
attr interpolationmode none
attr recordingmode vector(packetBytes)
attr source packetDropReasonIsRetryLimitReached(packetDropped)
attr title "packet drop: retry limit reached, packetBytes"
vector 63 LoRaWANNetwork.loRaNodes[2].LoRaNic.radio.energyConsumer powerConsumption:vector ETV
attr interpolationmode sample-hold
attr recordingmode vector
attr source powerConsumptionChanged
attr title "Power consumption"
vector 64 LoRaWANNetwork.loRaNodes[2].LoRaNic.radio.IdealEpEnergyStorage powerConsumption:vector ETV
attr interpolationmode sample-hold
attr recordingmode vector
attr source powerConsumptionChanged
attr title "Power consumption"
vector 65 LoRaWANNetwork.loRaNodes[2].LoRaNic.radio.IdealEpEnergyStorage powerGeneration:vector ETV
attr interpolationmode sample-hold
attr recordingmode vector
attr source powerGenerationChanged
attr title "Power generation"
vector 66 LoRaWANNetwork.loRaNodes[2].LoRaNic.radio.IdealEpEnergyStorage residualEnergyCapacity:vector ETV
attr interpolationmode linear
attr recordingmode vector
attr source residualEnergyCapacityChanged
attr title "Residual energy capacity"
vector 67 LoRaWANNetwork.loRaNodes[2].LoRaNic.radio radioMode:vector ETV
attr interpolationmode sample-hold
attr recordingmode vector
attr source radioModeChanged
attr title "Radio mode"
vector 68 LoRaWANNetwork.loRaNodes[2].LoRaNic.radio receptionState:vector ETV
attr interpolationmode sample-hold
attr recordingmode vector
attr source receptionStateChanged
attr title "Radio reception state"
vector 69 LoRaWANNetwork.loRaNodes[2].LoRaNic.radio transmissionState:vector ETV
attr interpolationmode sample-hold
attr recordingmode vector
attr source transmissionStateChanged
attr title "Radio transmission state"
vector 70 LoRaWANNetwork.loRaNodes[2].LoRaNic packetDropInterfaceDown:vector(packetBytes) ETV
attr interpolationmode none
attr recordingmode vector(packetBytes)
attr source packetDropReasonIsInterfaceDown(packetDropped)
attr title "packet drops: interface down, packetBytes"
vector 71 LoRaWANNetwork.loRaNodes[2].LoRaNic packetDropNoCarrier:vector(packetBytes) ETV
attr interpolationmode none
attr recordingmode vector(packetBytes)
attr source packetDropReasonIsNoCarrier(packetDropped)
attr title "packet drops: no carrier, packetBytes"
vector 72 LoRaWANNetwork.loRaNodes[3].LoRaNic.queue queueLength:vector ETV
attr autoWarmupFilter false
attr interpolationmode sample-hold
attr recordingmode vector
attr source "warmup(atomic(constant0(packetPushEnded) + count(packetPushStarted) - count(packetPulled) - count(packetRemoved) - count(packetDropped)))"
attr title "queue length"
attr unit pk
vector 73 LoRaWANNetwork.loRaNodes[3].LoRaNic.queue queueBitLength:vector ETV
attr autoWarmupFilter false
attr interpolationmode sample-hold
attr recordingmode vector
attr source "warmup(atomic(constant0(packetPushEnded) + sum(packetLength(packetPushStarted)) - sum(packetLength(packetPulled)) - sum(packetLength(packetRemoved)) - sum(packetLength(packetDropped))))"
attr title "queue bit length"
attr unit b
vector 74 LoRaWANNetwork.loRaNodes[3].LoRaNic.queue queueingTime:vector ETV
attr interpolationmode none
attr recordingmode vector
attr source queueingTime(packetPulled)
attr title "queueing times"
attr unit s
vector 75 LoRaWANNetwork.loRaNodes[3].LoRaNic.queue incomingPacketLengths:vector ETV
attr interpolationmode none
attr recordingmode vector
attr source packetLength(packetPushStarted)
attr title "incoming packet lengths"
attr unit b
vector 76 LoRaWANNetwork.loRaNodes[3].LoRaNic.queue incomingDataRate:vector ETV
attr interpolationmode linear
attr recordingmode vector
attr source throughput(packetPushStarted)
attr title "incoming datarate"
attr unit bps
vector 77 LoRaWANNetwork.loRaNodes[3].LoRaNic.queue outgoingPacketLengths:vector ETV
attr interpolationmode none
attr recordingmode vector
attr source packetLength(packetPulled)
attr title "outgoing packet lengths"
attr unit b
vector 78 LoRaWANNetwork.loRaNodes[3].LoRaNic.queue outgoingDataRate:vector ETV
attr interpolationmode linear
attr recordingmode vector
attr source throughput(packetPulled)
attr title "outgoing datarate"
attr unit bps
vector 79 LoRaWANNetwork.loRaNodes[3].LoRaNic.queue droppedPacketLengthsQueueOverflow:vector ETV
attr interpolationmode none
attr recordingmode vector
attr source packetLength(packetDropReasonIsQueueOverflow(packetDropped))
attr title "dropped packet lengths: queue overflow"
attr unit b
vector 80 LoRaWANNetwork.loRaNodes[3].LoRaNic.queue flowQueueingTime:vector ETV
attr interpolationmode none
attr recordingmode vector
attr source queueingTime(demuxFlow(packetPulled))
attr title "flow queueing times"
attr unit s
vector 81 LoRaWANNetwork.loRaNodes[3].LoRaNic.queue flowIncomingDataRate:vector ETV
attr interpolationmode linear
attr recordingmode vector
attr source throughput(flowPacketLength(demuxFlow(packetPushStarted)))
attr title "flow specific incoming data rate"
attr unit bps
vector 82 LoRaWANNetwork.loRaNodes[3].LoRaNic.queue flowOutgoingDataRate:vector ETV
attr interpolationmode linear
attr recordingmode vector
attr source throughput(flowPacketLength(demuxFlow(packetPulled)))
attr title "flow specific outgoing data rate"
attr unit bps
vector 83 LoRaWANNetwork.loRaNodes[3].LoRaNic.mac packetDropIncorrectlyReceived:vector(packetBytes) ETV
attr interpolationmode none
attr recordingmode vector(packetBytes)
attr source packetDropReasonIsIncorrectlyReceived(packetDropped)
attr title "packet drop: incorrectly received, packetBytes"
vector 84 LoRaWANNetwork.loRaNodes[3].LoRaNic.mac packetDropNotAddressedToUs:vector(packetBytes) ETV
attr interpolationmode none
attr recordingmode vector(packetBytes)
attr source packetDropReasonIsNotAddressedToUs(packetDropped)
attr title "packet drop: not addressed to us, packetBytes"
vector 85 LoRaWANNetwork.loRaNodes[3].LoRaNic.mac packetDropQueueOverflow:vector(packetBytes) ETV
attr interpolationmode none
attr recordingmode vector(packetBytes)
attr source packetDropReasonIsQueueOverflow(packetDropped)
attr title "packet drop: queue overflow, packetBytes"
vector 86 LoRaWANNetwork.loRaNodes[3].LoRaNic.mac packetDropRetryLimitReached:vector(packetBytes) ETV
attr interpolationmode none
attr recordingmode vector(packetBytes)
attr source packetDropReasonIsRetryLimitReached(packetDropped)
attr title "packet drop: retry limit reached, packetBytes"
vector 87 LoRaWANNetwork.loRaNodes[3].LoRaNic.radio.energyConsumer powerConsumption:vector ETV
attr interpolationmode sample-hold
attr recordingmode vector
attr source powerConsumptionChanged
attr title "Power consumption"
vector 88 LoRaWANNetwork.loRaNodes[3].LoRaNic.radio.IdealEpEnergyStorage powerConsumption:vector ETV
attr interpolationmode sample-hold
attr recordingmode vector
attr source powerConsumptionChanged
attr title "Power consumption"
vector 89 LoRaWANNetwork.loRaNodes[3].LoRaNic.radio.IdealEpEnergyStorage powerGeneration:vector ETV
attr interpolationmode sample-hold
attr recordingmode vector
attr source powerGenerationChanged
attr title "Power generation"
vector 90 LoRaWANNetwork.loRaNodes[3].LoRaNic.radio.IdealEpEnergyStorage residualEnergyCapacity:vector ETV
attr interpolationmode linear
attr recordingmode vector
attr source residualEnergyCapacityChanged
attr title "Residual energy capacity"
vector 91 LoRaWANNetwork.loRaNodes[3].LoRaNic.radio radioMode:vector ETV
attr interpolationmode sample-hold
attr recordingmode vector
attr source radioModeChanged
attr title "Radio mode"
vector 92 LoRaWANNetwork.loRaNodes[3].LoRaNic.radio receptionState:vector ETV
attr interpolationmode sample-hold
attr recordingmode vector
attr source receptionStateChanged
attr title "Radio reception state"
vector 93 LoRaWANNetwork.loRaNodes[3].LoRaNic.radio transmissionState:vector ETV
attr interpolationmode sample-hold
attr recordingmode vector
attr source transmissionStateChanged
attr title "Radio transmission state"
vector 94 LoRaWANNetwork.loRaNodes[3].LoRaNic packetDropInterfaceDown:vector(packetBytes) ETV
attr interpolationmode none
attr recordingmode vector(packetBytes)
attr source packetDropReasonIsInterfaceDown(packetDropped)
attr title "packet drops: interface down, packetBytes"
vector 95 LoRaWANNetwork.loRaNodes[3].LoRaNic packetDropNoCarrier:vector(packetBytes) ETV
attr interpolationmode none
attr recordingmode vector(packetBytes)
attr source packetDropReasonIsNoCarrier(packetDropped)
attr title "packet drops: no carrier, packetBytes"
vector 96 LoRaWANNetwork.loRaNodes[4].LoRaNic.queue queueLength:vector ETV
attr autoWarmupFilter false
attr interpolationmode sample-hold
attr recordingmode vector
attr source "warmup(atomic(constant0(packetPushEnded) + count(packetPushStarted) - count(packetPulled) - count(packetRemoved) - count(packetDropped)))"
attr title "queue length"
attr unit pk
vector 97 LoRaWANNetwork.loRaNodes[4].LoRaNic.queue queueBitLength:vector ETV
attr autoWarmupFilter false
attr interpolationmode sample-hold
attr recordingmode vector
attr source "warmup(atomic(constant0(packetPushEnded) + sum(packetLength(packetPushStarted)) - sum(packetLength(packetPulled)) - sum(packetLength(packetRemoved)) - sum(packetLength(packetDropped))))"
attr title "queue bit length"
attr unit b
vector 98 LoRaWANNetwork.loRaNodes[4].LoRaNic.queue queueingTime:vector ETV
attr interpolationmode none
attr recordingmode vector
attr source queueingTime(packetPulled)
attr title "queueing times"
attr unit s
vector 99 LoRaWANNetwork.loRaNodes[4].LoRaNic.queue incomingPacketLengths:vector ETV
attr interpolationmode none
attr recordingmode vector
attr source packetLength(packetPushStarted)
attr title "incoming packet lengths"
attr unit b
vector 100 LoRaWANNetwork.loRaNodes[4].LoRaNic.queue incomingDataRate:vector ETV
attr interpolationmode linear
attr recordingmode vector
attr source throughput(packetPushStarted)
attr title "incoming datarate"
attr unit bps
vector 101 LoRaWANNetwork.loRaNodes[4].LoRaNic.queue outgoingPacketLengths:vector ETV
attr interpolationmode none
attr recordingmode vector
attr source packetLength(packetPulled)
attr title "outgoing packet lengths"
attr unit b
vector 102 LoRaWANNetwork.loRaNodes[4].LoRaNic.queue outgoingDataRate:vector ETV
attr interpolationmode linear
attr recordingmode vector
attr source throughput(packetPulled)
attr title "outgoing datarate"
attr unit bps
vector 103 LoRaWANNetwork.loRaNodes[4].LoRaNic.queue droppedPacketLengthsQueueOverflow:vector ETV
attr interpolationmode none
attr recordingmode vector
attr source packetLength(packetDropReasonIsQueueOverflow(packetDropped))
attr title "dropped packet lengths: queue overflow"
attr unit b
vector 104 LoRaWANNetwork.loRaNodes[4].LoRaNic.queue flowQueueingTime:vector ETV
attr interpolationmode none
attr recordingmode vector
attr source queueingTime(demuxFlow(packetPulled))
attr title "flow queueing times"
attr unit s
vector 105 LoRaWANNetwork.loRaNodes[4].LoRaNic.queue flowIncomingDataRate:vector ETV
attr interpolationmode linear
attr recordingmode vector
attr source throughput(flowPacketLength(demuxFlow(packetPushStarted)))
attr title "flow specific incoming data rate"
attr unit bps
vector 106 LoRaWANNetwork.loRaNodes[4].LoRaNic.queue flowOutgoingDataRate:vector ETV
attr interpolationmode linear
attr recordingmode vector
attr source throughput(flowPacketLength(demuxFlow(packetPulled)))
attr title "flow specific outgoing data rate"
attr unit bps
vector 107 LoRaWANNetwork.loRaNodes[4].LoRaNic.mac packetDropIncorrectlyReceived:vector(packetBytes) ETV
attr interpolationmode none
attr recordingmode vector(packetBytes)
attr source packetDropReasonIsIncorrectlyReceived(packetDropped)
attr title "packet drop: incorrectly received, packetBytes"
vector 108 LoRaWANNetwork.loRaNodes[4].LoRaNic.mac packetDropNotAddressedToUs:vector(packetBytes) ETV
attr interpolationmode none
attr recordingmode vector(packetBytes)
attr source packetDropReasonIsNotAddressedToUs(packetDropped)
attr title "packet drop: not addressed to us, packetBytes"
vector 109 LoRaWANNetwork.loRaNodes[4].LoRaNic.mac packetDropQueueOverflow:vector(packetBytes) ETV
attr interpolationmode none
attr recordingmode vector(packetBytes)
attr source packetDropReasonIsQueueOverflow(packetDropped)
attr title "packet drop: queue overflow, packetBytes"
vector 110 LoRaWANNetwork.loRaNodes[4].LoRaNic.mac packetDropRetryLimitReached:vector(packetBytes) ETV
attr interpolationmode none
attr recordingmode vector(packetBytes)
attr source packetDropReasonIsRetryLimitReached(packetDropped)
attr title "packet drop: retry limit reached, packetBytes"
vector 111 LoRaWANNetwork.loRaNodes[4].LoRaNic.radio.energyConsumer powerConsumption:vector ETV
attr interpolationmode sample-hold
attr recordingmode vector
attr source powerConsumptionChanged
attr title "Power consumption"
vector 112 LoRaWANNetwork.loRaNodes[4].LoRaNic.radio.IdealEpEnergyStorage powerConsumption:vector ETV
attr interpolationmode sample-hold
attr recordingmode vector
attr source powerConsumptionChanged
attr title "Power consumption"
vector 113 LoRaWANNetwork.loRaNodes[4].LoRaNic.radio.IdealEpEnergyStorage powerGeneration:vector ETV
attr interpolationmode sample-hold
attr recordingmode vector
attr source powerGenerationChanged
attr title "Power generation"
vector 114 LoRaWANNetwork.loRaNodes[4].LoRaNic.radio.IdealEpEnergyStorage residualEnergyCapacity:vector ETV
attr interpolationmode linear
attr recordingmode vector
attr source residualEnergyCapacityChanged
attr title "Residual energy capacity"
vector 115 LoRaWANNetwork.loRaNodes[4].LoRaNic.radio radioMode:vector ETV
attr interpolationmode sample-hold
attr recordingmode vector
attr source radioModeChanged
attr title "Radio mode"
vector 116 LoRaWANNetwork.loRaNodes[4].LoRaNic.radio receptionState:vector ETV
attr interpolationmode sample-hold
attr recordingmode vector
attr source receptionStateChanged
attr title "Radio reception state"
vector 117 LoRaWANNetwork.loRaNodes[4].LoRaNic.radio transmissionState:vector ETV
attr interpolationmode sample-hold
attr recordingmode vector
attr source transmissionStateChanged
attr title "Radio transmission state"
vector 118 LoRaWANNetwork.loRaNodes[4].LoRaNic packetDropInterfaceDown:vector(packetBytes) ETV
attr interpolationmode none
attr recordingmode vector(packetBytes)
attr source packetDropReasonIsInterfaceDown(packetDropped)
attr title "packet drops: interface down, packetBytes"
vector 119 LoRaWANNetwork.loRaNodes[4].LoRaNic packetDropNoCarrier:vector(packetBytes) ETV
attr interpolationmode none
attr recordingmode vector(packetBytes)
attr source packetDropReasonIsNoCarrier(packetDropped)
attr title "packet drops: no carrier, packetBytes"
vector 120 LoRaWANNetwork.loRaNodes[5].LoRaNic.queue queueLength:vector ETV
attr autoWarmupFilter false
attr interpolationmode sample-hold
attr recordingmode vector
attr source "warmup(atomic(constant0(packetPushEnded) + count(packetPushStarted) - count(packetPulled) - count(packetRemoved) - count(packetDropped)))"
attr title "queue length"
attr unit pk
vector 121 LoRaWANNetwork.loRaNodes[5].LoRaNic.queue queueBitLength:vector ETV
attr autoWarmupFilter false
attr interpolationmode sample-hold
attr recordingmode vector
attr source "warmup(atomic(constant0(packetPushEnded) + sum(packetLength(packetPushStarted)) - sum(packetLength(packetPulled)) - sum(packetLength(packetRemoved)) - sum(packetLength(packetDropped))))"
attr title "queue bit length"
attr unit b
vector 122 LoRaWANNetwork.loRaNodes[5].LoRaNic.queue queueingTime:vector ETV
attr interpolationmode none
attr recordingmode vector
attr source queueingTime(packetPulled)
attr title "queueing times"
attr unit s
vector 123 LoRaWANNetwork.loRaNodes[5].LoRaNic.queue incomingPacketLengths:vector ETV
attr interpolationmode none
attr recordingmode vector
attr source packetLength(packetPushStarted)
attr title "incoming packet lengths"
attr unit b
vector 124 LoRaWANNetwork.loRaNodes[5].LoRaNic.queue incomingDataRate:vector ETV
attr interpolationmode linear
attr recordingmode vector
attr source throughput(packetPushStarted)
attr title "incoming datarate"
attr unit bps
vector 125 LoRaWANNetwork.loRaNodes[5].LoRaNic.queue outgoingPacketLengths:vector ETV
attr interpolationmode none
attr recordingmode vector
attr source packetLength(packetPulled)
attr title "outgoing packet lengths"
attr unit b
vector 126 LoRaWANNetwork.loRaNodes[5].LoRaNic.queue outgoingDataRate:vector ETV
attr interpolationmode linear
attr recordingmode vector
attr source throughput(packetPulled)
attr title "outgoing datarate"
attr unit bps
vector 127 LoRaWANNetwork.loRaNodes[5].LoRaNic.queue droppedPacketLengthsQueueOverflow:vector ETV
attr interpolationmode none
attr recordingmode vector
attr source packetLength(packetDropReasonIsQueueOverflow(packetDropped))
attr title "dropped packet lengths: queue overflow"
attr unit b
vector 128 LoRaWANNetwork.loRaNodes[5].LoRaNic.queue flowQueueingTime:vector ETV
attr interpolationmode none
attr recordingmode vector
attr source queueingTime(demuxFlow(packetPulled))
attr title "flow queueing times"
attr unit s
vector 129 LoRaWANNetwork.loRaNodes[5].LoRaNic.queue flowIncomingDataRate:vector ETV
attr interpolationmode linear
attr recordingmode vector
attr source throughput(flowPacketLength(demuxFlow(packetPushStarted)))
attr title "flow specific incoming data rate"
attr unit bps
vector 130 LoRaWANNetwork.loRaNodes[5].LoRaNic.queue flowOutgoingDataRate:vector ETV
attr interpolationmode linear
attr recordingmode vector
attr source throughput(flowPacketLength(demuxFlow(packetPulled)))
attr title "flow specific outgoing data rate"
attr unit bps
vector 131 LoRaWANNetwork.loRaNodes[5].LoRaNic.mac packetDropIncorrectlyReceived:vector(packetBytes) ETV
attr interpolationmode none
attr recordingmode vector(packetBytes)
attr source packetDropReasonIsIncorrectlyReceived(packetDropped)
attr title "packet drop: incorrectly received, packetBytes"
vector 132 LoRaWANNetwork.loRaNodes[5].LoRaNic.mac packetDropNotAddressedToUs:vector(packetBytes) ETV
attr interpolationmode none
attr recordingmode vector(packetBytes)
attr source packetDropReasonIsNotAddressedToUs(packetDropped)
attr title "packet drop: not addressed to us, packetBytes"
vector 133 LoRaWANNetwork.loRaNodes[5].LoRaNic.mac packetDropQueueOverflow:vector(packetBytes) ETV
attr interpolationmode none
attr recordingmode vector(packetBytes)
attr source packetDropReasonIsQueueOverflow(packetDropped)
attr title "packet drop: queue overflow, packetBytes"
vector 134 LoRaWANNetwork.loRaNodes[5].LoRaNic.mac packetDropRetryLimitReached:vector(packetBytes) ETV
attr interpolationmode none
attr recordingmode vector(packetBytes)
attr source packetDropReasonIsRetryLimitReached(packetDropped)
attr title "packet drop: retry limit reached, packetBytes"
vector 135 LoRaWANNetwork.loRaNodes[5].LoRaNic.radio.energyConsumer powerConsumption:vector ETV
attr interpolationmode sample-hold
attr recordingmode vector
attr source powerConsumptionChanged
attr title "Power consumption"
vector 136 LoRaWANNetwork.loRaNodes[5].LoRaNic.radio.IdealEpEnergyStorage powerConsumption:vector ETV
attr interpolationmode sample-hold
attr recordingmode vector
attr source powerConsumptionChanged
attr title "Power consumption"
vector 137 LoRaWANNetwork.loRaNodes[5].LoRaNic.radio.IdealEpEnergyStorage powerGeneration:vector ETV
attr interpolationmode sample-hold
attr recordingmode vector
attr source powerGenerationChanged
attr title "Power generation"
vector 138 LoRaWANNetwork.loRaNodes[5].LoRaNic.radio.IdealEpEnergyStorage residualEnergyCapacity:vector ETV
attr interpolationmode linear
attr recordingmode vector
attr source residualEnergyCapacityChanged
attr title "Residual energy capacity"
vector 139 LoRaWANNetwork.loRaNodes[5].LoRaNic.radio radioMode:vector ETV
attr interpolationmode sample-hold
attr recordingmode vector
attr source radioModeChanged
attr title "Radio mode"
vector 140 LoRaWANNetwork.loRaNodes[5].LoRaNic.radio receptionState:vector ETV
attr interpolationmode sample-hold
attr recordingmode vector
attr source receptionStateChanged
attr title "Radio reception state"
vector 141 LoRaWANNetwork.loRaNodes[5].LoRaNic.radio transmissionState:vector ETV
attr interpolationmode sample-hold
attr recordingmode vector
attr source transmissionStateChanged
attr title "Radio transmission state"
vector 142 LoRaWANNetwork.loRaNodes[5].LoRaNic packetDropInterfaceDown:vector(packetBytes) ETV
attr interpolationmode none
attr recordingmode vector(packetBytes)
attr source packetDropReasonIsInterfaceDown(packetDropped)
attr title "packet drops: interface down, packetBytes"
vector 143 LoRaWANNetwork.loRaNodes[5].LoRaNic packetDropNoCarrier:vector(packetBytes) ETV
attr interpolationmode none
attr recordingmode vector(packetBytes)
attr source packetDropReasonIsNoCarrier(packetDropped)
attr title "packet drops: no carrier, packetBytes"
vector 144 LoRaWANNetwork.loRaNodes[6].LoRaNic.queue queueLength:vector ETV
attr autoWarmupFilter false
attr interpolationmode sample-hold
attr recordingmode vector
attr source "warmup(atomic(constant0(packetPushEnded) + count(packetPushStarted) - count(packetPulled) - count(packetRemoved) - count(packetDropped)))"
attr title "queue length"
attr unit pk
vector 145 LoRaWANNetwork.loRaNodes[6].LoRaNic.queue queueBitLength:vector ETV
attr autoWarmupFilter false
attr interpolationmode sample-hold
attr recordingmode vector
attr source "warmup(atomic(constant0(packetPushEnded) + sum(packetLength(packetPushStarted)) - sum(packetLength(packetPulled)) - sum(packetLength(packetRemoved)) - sum(packetLength(packetDropped))))"
attr title "queue bit length"
attr unit b
vector 146 LoRaWANNetwork.loRaNodes[6].LoRaNic.queue queueingTime:vector ETV
attr interpolationmode none
attr recordingmode vector
attr source queueingTime(packetPulled)
attr title "queueing times"
attr unit s
vector 147 LoRaWANNetwork.loRaNodes[6].LoRaNic.queue incomingPacketLengths:vector ETV
attr interpolationmode none
attr recordingmode vector
attr source packetLength(packetPushStarted)
attr title "incoming packet lengths"
attr unit b
vector 148 LoRaWANNetwork.loRaNodes[6].LoRaNic.queue incomingDataRate:vector ETV
attr interpolationmode linear
attr recordingmode vector
attr source throughput(packetPushStarted)
attr title "incoming datarate"
attr unit bps
vector 149 LoRaWANNetwork.loRaNodes[6].LoRaNic.queue outgoingPacketLengths:vector ETV
attr interpolationmode none
attr recordingmode vector
attr source packetLength(packetPulled)
attr title "outgoing packet lengths"
attr unit b
vector 150 LoRaWANNetwork.loRaNodes[6].LoRaNic.queue outgoingDataRate:vector ETV
attr interpolationmode linear
attr recordingmode vector
attr source throughput(packetPulled)
attr title "outgoing datarate"
attr unit bps
vector 151 LoRaWANNetwork.loRaNodes[6].LoRaNic.queue droppedPacketLengthsQueueOverflow:vector ETV
attr interpolationmode none
attr recordingmode vector
attr source packetLength(packetDropReasonIsQueueOverflow(packetDropped))
attr title "dropped packet lengths: queue overflow"
attr unit b
vector 152 LoRaWANNetwork.loRaNodes[6].LoRaNic.queue flowQueueingTime:vector ETV
attr interpolationmode none
attr recordingmode vector
attr source queueingTime(demuxFlow(packetPulled))
attr title "flow queueing times"
attr unit s
vector 153 LoRaWANNetwork.loRaNodes[6].LoRaNic.queue flowIncomingDataRate:vector ETV
attr interpolationmode linear
attr recordingmode vector
attr source throughput(flowPacketLength(demuxFlow(packetPushStarted)))
attr title "flow specific incoming data rate"
attr unit bps
vector 154 LoRaWANNetwork.loRaNodes[6].LoRaNic.queue flowOutgoingDataRate:vector ETV
attr interpolationmode linear
attr recordingmode vector
attr source throughput(flowPacketLength(demuxFlow(packetPulled)))
attr title "flow specific outgoing data rate"
attr unit bps
vector 155 LoRaWANNetwork.loRaNodes[6].LoRaNic.mac packetDropIncorrectlyReceived:vector(packetBytes) ETV
attr interpolationmode none
attr recordingmode vector(packetBytes)
attr source packetDropReasonIsIncorrectlyReceived(packetDropped)
attr title "packet drop: incorrectly received, packetBytes"
vector 156 LoRaWANNetwork.loRaNodes[6].LoRaNic.mac packetDropNotAddressedToUs:vector(packetBytes) ETV
attr interpolationmode none
attr recordingmode vector(packetBytes)
attr source packetDropReasonIsNotAddressedToUs(packetDropped)
attr title "packet drop: not addressed to us, packetBytes"
vector 157 LoRaWANNetwork.loRaNodes[6].LoRaNic.mac packetDropQueueOverflow:vector(packetBytes) ETV
attr interpolationmode none
attr recordingmode vector(packetBytes)
attr source packetDropReasonIsQueueOverflow(packetDropped)
attr title "packet drop: queue overflow, packetBytes"
vector 158 LoRaWANNetwork.loRaNodes[6].LoRaNic.mac packetDropRetryLimitReached:vector(packetBytes) ETV
attr interpolationmode none
attr recordingmode vector(packetBytes)
attr source packetDropReasonIsRetryLimitReached(packetDropped)
attr title "packet drop: retry limit reached, packetBytes"
vector 159 LoRaWANNetwork.loRaNodes[6].LoRaNic.radio.energyConsumer powerConsumption:vector ETV
attr interpolationmode sample-hold
attr recordingmode vector
attr source powerConsumptionChanged
attr title "Power consumption"
vector 160 LoRaWANNetwork.loRaNodes[6].LoRaNic.radio.IdealEpEnergyStorage powerConsumption:vector ETV
attr interpolationmode sample-hold
attr recordingmode vector
attr source powerConsumptionChanged
attr title "Power consumption"
vector 161 LoRaWANNetwork.loRaNodes[6].LoRaNic.radio.IdealEpEnergyStorage powerGeneration:vector ETV
attr interpolationmode sample-hold
attr recordingmode vector
attr source powerGenerationChanged
attr title "Power generation"
vector 162 LoRaWANNetwork.loRaNodes[6].LoRaNic.radio.IdealEpEnergyStorage residualEnergyCapacity:vector ETV
attr interpolationmode linear
attr recordingmode vector
attr source residualEnergyCapacityChanged
attr title "Residual energy capacity"
vector 163 LoRaWANNetwork.loRaNodes[6].LoRaNic.radio radioMode:vector ETV
attr interpolationmode sample-hold
attr recordingmode vector
attr source radioModeChanged
attr title "Radio mode"
vector 164 LoRaWANNetwork.loRaNodes[6].LoRaNic.radio receptionState:vector ETV
attr interpolationmode sample-hold
attr recordingmode vector
attr source receptionStateChanged
attr title "Radio reception state"
vector 165 LoRaWANNetwork.loRaNodes[6].LoRaNic.radio transmissionState:vector ETV
attr interpolationmode sample-hold
attr recordingmode vector
attr source transmissionStateChanged
attr title "Radio transmission state"
vector 166 LoRaWANNetwork.loRaNodes[6].LoRaNic packetDropInterfaceDown:vector(packetBytes) ETV
attr interpolationmode none
attr recordingmode vector(packetBytes)
attr source packetDropReasonIsInterfaceDown(packetDropped)
attr title "packet drops: interface down, packetBytes"
vector 167 LoRaWANNetwork.loRaNodes[6].LoRaNic packetDropNoCarrier:vector(packetBytes) ETV
attr interpolationmode none
attr recordingmode vector(packetBytes)
attr source packetDropReasonIsNoCarrier(packetDropped)
attr title "packet drops: no carrier, packetBytes"
vector 168 LoRaWANNetwork.loRaNodes[7].LoRaNic.queue queueLength:vector ETV
attr autoWarmupFilter false
attr interpolationmode sample-hold
attr recordingmode vector
attr source "warmup(atomic(constant0(packetPushEnded) + count(packetPushStarted) - count(packetPulled) - count(packetRemoved) - count(packetDropped)))"
attr title "queue length"
attr unit pk
vector 169 LoRaWANNetwork.loRaNodes[7].LoRaNic.queue queueBitLength:vector ETV
attr autoWarmupFilter false
attr interpolationmode sample-hold
attr recordingmode vector
attr source "warmup(atomic(constant0(packetPushEnded) + sum(packetLength(packetPushStarted)) - sum(packetLength(packetPulled)) - sum(packetLength(packetRemoved)) - sum(packetLength(packetDropped))))"
attr title "queue bit length"
attr unit b
vector 170 LoRaWANNetwork.loRaNodes[7].LoRaNic.queue queueingTime:vector ETV
attr interpolationmode none
attr recordingmode vector
attr source queueingTime(packetPulled)
attr title "queueing times"
attr unit s
vector 171 LoRaWANNetwork.loRaNodes[7].LoRaNic.queue incomingPacketLengths:vector ETV
attr interpolationmode none
attr recordingmode vector
attr source packetLength(packetPushStarted)
attr title "incoming packet lengths"
attr unit b
vector 172 LoRaWANNetwork.loRaNodes[7].LoRaNic.queue incomingDataRate:vector ETV
attr interpolationmode linear
attr recordingmode vector
attr source throughput(packetPushStarted)
attr title "incoming datarate"
attr unit bps
vector 173 LoRaWANNetwork.loRaNodes[7].LoRaNic.queue outgoingPacketLengths:vector ETV
attr interpolationmode none
attr recordingmode vector
attr source packetLength(packetPulled)
attr title "outgoing packet lengths"
attr unit b
vector 174 LoRaWANNetwork.loRaNodes[7].LoRaNic.queue outgoingDataRate:vector ETV
attr interpolationmode linear
attr recordingmode vector
attr source throughput(packetPulled)
attr title "outgoing datarate"
attr unit bps
vector 175 LoRaWANNetwork.loRaNodes[7].LoRaNic.queue droppedPacketLengthsQueueOverflow:vector ETV
attr interpolationmode none
attr recordingmode vector
attr source packetLength(packetDropReasonIsQueueOverflow(packetDropped))
attr title "dropped packet lengths: queue overflow"
attr unit b
vector 176 LoRaWANNetwork.loRaNodes[7].LoRaNic.queue flowQueueingTime:vector ETV
attr interpolationmode none
attr recordingmode vector
attr source queueingTime(demuxFlow(packetPulled))
attr title "flow queueing times"
attr unit s
vector 177 LoRaWANNetwork.loRaNodes[7].LoRaNic.queue flowIncomingDataRate:vector ETV
attr interpolationmode linear
attr recordingmode vector
attr source throughput(flowPacketLength(demuxFlow(packetPushStarted)))
attr title "flow specific incoming data rate"
attr unit bps
vector 178 LoRaWANNetwork.loRaNodes[7].LoRaNic.queue flowOutgoingDataRate:vector ETV
attr interpolationmode linear
attr recordingmode vector
attr source throughput(flowPacketLength(demuxFlow(packetPulled)))
attr title "flow specific outgoing data rate"
attr unit bps
vector 179 LoRaWANNetwork.loRaNodes[7].LoRaNic.mac packetDropIncorrectlyReceived:vector(packetBytes) ETV
attr interpolationmode none
attr recordingmode vector(packetBytes)
attr source packetDropReasonIsIncorrectlyReceived(packetDropped)
attr title "packet drop: incorrectly received, packetBytes"
vector 180 LoRaWANNetwork.loRaNodes[7].LoRaNic.mac packetDropNotAddressedToUs:vector(packetBytes) ETV
attr interpolationmode none
attr recordingmode vector(packetBytes)
attr source packetDropReasonIsNotAddressedToUs(packetDropped)
attr title "packet drop: not addressed to us, packetBytes"
vector 181 LoRaWANNetwork.loRaNodes[7].LoRaNic.mac packetDropQueueOverflow:vector(packetBytes) ETV
attr interpolationmode none
attr recordingmode vector(packetBytes)
attr source packetDropReasonIsQueueOverflow(packetDropped)
attr title "packet drop: queue overflow, packetBytes"
vector 182 LoRaWANNetwork.loRaNodes[7].LoRaNic.mac packetDropRetryLimitReached:vector(packetBytes) ETV
attr interpolationmode none
attr recordingmode vector(packetBytes)
attr source packetDropReasonIsRetryLimitReached(packetDropped)
attr title "packet drop: retry limit reached, packetBytes"
vector 183 LoRaWANNetwork.loRaNodes[7].LoRaNic.radio.energyConsumer powerConsumption:vector ETV
attr interpolationmode sample-hold
attr recordingmode vector
attr source powerConsumptionChanged
attr title "Power consumption"
vector 184 LoRaWANNetwork.loRaNodes[7].LoRaNic.radio.IdealEpEnergyStorage powerConsumption:vector ETV
attr interpolationmode sample-hold
attr recordingmode vector
attr source powerConsumptionChanged
attr title "Power consumption"
vector 185 LoRaWANNetwork.loRaNodes[7].LoRaNic.radio.IdealEpEnergyStorage powerGeneration:vector ETV
attr interpolationmode sample-hold
attr recordingmode vector
attr source powerGenerationChanged
attr title "Power generation"
vector 186 LoRaWANNetwork.loRaNodes[7].LoRaNic.radio.IdealEpEnergyStorage residualEnergyCapacity:vector ETV
attr interpolationmode linear
attr recordingmode vector
attr source residualEnergyCapacityChanged
attr title "Residual energy capacity"
vector 187 LoRaWANNetwork.loRaNodes[7].LoRaNic.radio radioMode:vector ETV
attr interpolationmode sample-hold
attr recordingmode vector
attr source radioModeChanged
attr title "Radio mode"
vector 188 LoRaWANNetwork.loRaNodes[7].LoRaNic.radio receptionState:vector ETV
attr interpolationmode sample-hold
attr recordingmode vector
attr source receptionStateChanged
attr title "Radio reception state"
vector 189 LoRaWANNetwork.loRaNodes[7].LoRaNic.radio transmissionState:vector ETV
attr interpolationmode sample-hold
attr recordingmode vector
attr source transmissionStateChanged
attr title "Radio transmission state"
vector 190 LoRaWANNetwork.loRaNodes[7].LoRaNic packetDropInterfaceDown:vector(packetBytes) ETV
attr interpolationmode none
attr recordingmode vector(packetBytes)
attr source packetDropReasonIsInterfaceDown(packetDropped)
attr title "packet drops: interface down, packetBytes"
vector 191 LoRaWANNetwork.loRaNodes[7].LoRaNic packetDropNoCarrier:vector(packetBytes) ETV
attr interpolationmode none
attr recordingmode vector(packetBytes)
attr source packetDropReasonIsNoCarrier(packetDropped)
attr title "packet drops: no carrier, packetBytes"
vector 192 LoRaWANNetwork.loRaNodes[8].LoRaNic.queue queueLength:vector ETV
attr autoWarmupFilter false
attr interpolationmode sample-hold
attr recordingmode vector
attr source "warmup(atomic(constant0(packetPushEnded) + count(packetPushStarted) - count(packetPulled) - count(packetRemoved) - count(packetDropped)))"
attr title "queue length"
attr unit pk
vector 193 LoRaWANNetwork.loRaNodes[8].LoRaNic.queue queueBitLength:vector ETV
attr autoWarmupFilter false
attr interpolationmode sample-hold
attr recordingmode vector
attr source "warmup(atomic(constant0(packetPushEnded) + sum(packetLength(packetPushStarted)) - sum(packetLength(packetPulled)) - sum(packetLength(packetRemoved)) - sum(packetLength(packetDropped))))"
attr title "queue bit length"
attr unit b
vector 194 LoRaWANNetwork.loRaNodes[8].LoRaNic.queue queueingTime:vector ETV
attr interpolationmode none
attr recordingmode vector
attr source queueingTime(packetPulled)
attr title "queueing times"
attr unit s
vector 195 LoRaWANNetwork.loRaNodes[8].LoRaNic.queue incomingPacketLengths:vector ETV
attr interpolationmode none
attr recordingmode vector
attr source packetLength(packetPushStarted)
attr title "incoming packet lengths"
attr unit b
vector 196 LoRaWANNetwork.loRaNodes[8].LoRaNic.queue incomingDataRate:vector ETV
attr interpolationmode linear
attr recordingmode vector
attr source throughput(packetPushStarted)
attr title "incoming datarate"
attr unit bps
vector 197 LoRaWANNetwork.loRaNodes[8].LoRaNic.queue outgoingPacketLengths:vector ETV
attr interpolationmode none
attr recordingmode vector
attr source packetLength(packetPulled)
attr title "outgoing packet lengths"
attr unit b
vector 198 LoRaWANNetwork.loRaNodes[8].LoRaNic.queue outgoingDataRate:vector ETV
attr interpolationmode linear
attr recordingmode vector
attr source throughput(packetPulled)
attr title "outgoing datarate"
attr unit bps
vector 199 LoRaWANNetwork.loRaNodes[8].LoRaNic.queue droppedPacketLengthsQueueOverflow:vector ETV
attr interpolationmode none
attr recordingmode vector
attr source packetLength(packetDropReasonIsQueueOverflow(packetDropped))
attr title "dropped packet lengths: queue overflow"
attr unit b
vector 200 LoRaWANNetwork.loRaNodes[8].LoRaNic.queue flowQueueingTime:vector ETV
attr interpolationmode none
attr recordingmode vector
attr source queueingTime(demuxFlow(packetPulled))
attr title "flow queueing times"
attr unit s
vector 201 LoRaWANNetwork.loRaNodes[8].LoRaNic.queue flowIncomingDataRate:vector ETV
attr interpolationmode linear
attr recordingmode vector
attr source throughput(flowPacketLength(demuxFlow(packetPushStarted)))
attr title "flow specific incoming data rate"
attr unit bps
vector 202 LoRaWANNetwork.loRaNodes[8].LoRaNic.queue flowOutgoingDataRate:vector ETV
attr interpolationmode linear
attr recordingmode vector
attr source throughput(flowPacketLength(demuxFlow(packetPulled)))
attr title "flow specific outgoing data rate"
attr unit bps
vector 203 LoRaWANNetwork.loRaNodes[8].LoRaNic.mac packetDropIncorrectlyReceived:vector(packetBytes) ETV
attr interpolationmode none
attr recordingmode vector(packetBytes)
attr source packetDropReasonIsIncorrectlyReceived(packetDropped)
attr title "packet drop: incorrectly received, packetBytes"
vector 204 LoRaWANNetwork.loRaNodes[8].LoRaNic.mac packetDropNotAddressedToUs:vector(packetBytes) ETV
attr interpolationmode none
attr recordingmode vector(packetBytes)
attr source packetDropReasonIsNotAddressedToUs(packetDropped)
attr title "packet drop: not addressed to us, packetBytes"
vector 205 LoRaWANNetwork.loRaNodes[8].LoRaNic.mac packetDropQueueOverflow:vector(packetBytes) ETV
attr interpolationmode none
attr recordingmode vector(packetBytes)
attr source packetDropReasonIsQueueOverflow(packetDropped)
attr title "packet drop: queue overflow, packetBytes"
vector 206 LoRaWANNetwork.loRaNodes[8].LoRaNic.mac packetDropRetryLimitReached:vector(packetBytes) ETV
attr interpolationmode none
attr recordingmode vector(packetBytes)
attr source packetDropReasonIsRetryLimitReached(packetDropped)
attr title "packet drop: retry limit reached, packetBytes"
vector 207 LoRaWANNetwork.loRaNodes[8].LoRaNic.radio.energyConsumer powerConsumption:vector ETV
attr interpolationmode sample-hold
attr recordingmode vector
attr source powerConsumptionChanged
attr title "Power consumption"
vector 208 LoRaWANNetwork.loRaNodes[8].LoRaNic.radio.IdealEpEnergyStorage powerConsumption:vector ETV
attr interpolationmode sample-hold
attr recordingmode vector
attr source powerConsumptionChanged
attr title "Power consumption"
vector 209 LoRaWANNetwork.loRaNodes[8].LoRaNic.radio.IdealEpEnergyStorage powerGeneration:vector ETV
attr interpolationmode sample-hold
attr recordingmode vector
attr source powerGenerationChanged
attr title "Power generation"
vector 210 LoRaWANNetwork.loRaNodes[8].LoRaNic.radio.IdealEpEnergyStorage residualEnergyCapacity:vector ETV
attr interpolationmode linear
attr recordingmode vector
attr source residualEnergyCapacityChanged
attr title "Residual energy capacity"
vector 211 LoRaWANNetwork.loRaNodes[8].LoRaNic.radio radioMode:vector ETV
attr interpolationmode sample-hold
attr recordingmode vector
attr source radioModeChanged
attr title "Radio mode"
vector 212 LoRaWANNetwork.loRaNodes[8].LoRaNic.radio receptionState:vector ETV
attr interpolationmode sample-hold
attr recordingmode vector
attr source receptionStateChanged
attr title "Radio reception state"
vector 213 LoRaWANNetwork.loRaNodes[8].LoRaNic.radio transmissionState:vector ETV
attr interpolationmode sample-hold
attr recordingmode vector
attr source transmissionStateChanged
attr title "Radio transmission state"
vector 214 LoRaWANNetwork.loRaNodes[8].LoRaNic packetDropInterfaceDown:vector(packetBytes) ETV
attr interpolationmode none
attr recordingmode vector(packetBytes)
attr source packetDropReasonIsInterfaceDown(packetDropped)
attr title "packet drops: interface down, packetBytes"
vector 215 LoRaWANNetwork.loRaNodes[8].LoRaNic packetDropNoCarrier:vector(packetBytes) ETV
attr interpolationmode none
attr recordingmode vector(packetBytes)
attr source packetDropReasonIsNoCarrier(packetDropped)
attr title "packet drops: no carrier, packetBytes"
vector 216 LoRaWANNetwork.loRaNodes[9].LoRaNic.queue queueLength:vector ETV
attr autoWarmupFilter false
attr interpolationmode sample-hold
attr recordingmode vector
attr source "warmup(atomic(constant0(packetPushEnded) + count(packetPushStarted) - count(packetPulled) - count(packetRemoved) - count(packetDropped)))"
attr title "queue length"
attr unit pk
vector 217 LoRaWANNetwork.loRaNodes[9].LoRaNic.queue queueBitLength:vector ETV
attr autoWarmupFilter false
attr interpolationmode sample-hold
attr recordingmode vector
attr source "warmup(atomic(constant0(packetPushEnded) + sum(packetLength(packetPushStarted)) - sum(packetLength(packetPulled)) - sum(packetLength(packetRemoved)) - sum(packetLength(packetDropped))))"
attr title "queue bit length"
attr unit b
vector 218 LoRaWANNetwork.loRaNodes[9].LoRaNic.queue queueingTime:vector ETV
attr interpolationmode none
attr recordingmode vector
attr source queueingTime(packetPulled)
attr title "queueing times"
attr unit s
vector 219 LoRaWANNetwork.loRaNodes[9].LoRaNic.queue incomingPacketLengths:vector ETV
attr interpolationmode none
attr recordingmode vector
attr source packetLength(packetPushStarted)
attr title "incoming packet lengths"
attr unit b
vector 220 LoRaWANNetwork.loRaNodes[9].LoRaNic.queue incomingDataRate:vector ETV
attr interpolationmode linear
attr recordingmode vector
attr source throughput(packetPushStarted)
attr title "incoming datarate"
attr unit bps
vector 221 LoRaWANNetwork.loRaNodes[9].LoRaNic.queue outgoingPacketLengths:vector ETV
attr interpolationmode none
attr recordingmode vector
attr source packetLength(packetPulled)
attr title "outgoing packet lengths"
attr unit b
vector 222 LoRaWANNetwork.loRaNodes[9].LoRaNic.queue outgoingDataRate:vector ETV
attr interpolationmode linear
attr recordingmode vector
attr source throughput(packetPulled)
attr title "outgoing datarate"
attr unit bps
vector 223 LoRaWANNetwork.loRaNodes[9].LoRaNic.queue droppedPacketLengthsQueueOverflow:vector ETV
attr interpolationmode none
attr recordingmode vector
attr source packetLength(packetDropReasonIsQueueOverflow(packetDropped))
attr title "dropped packet lengths: queue overflow"
attr unit b
vector 224 LoRaWANNetwork.loRaNodes[9].LoRaNic.queue flowQueueingTime:vector ETV
attr interpolationmode none
attr recordingmode vector
attr source queueingTime(demuxFlow(packetPulled))
attr title "flow queueing times"
attr unit s
vector 225 LoRaWANNetwork.loRaNodes[9].LoRaNic.queue flowIncomingDataRate:vector ETV
attr interpolationmode linear
attr recordingmode vector
attr source throughput(flowPacketLength(demuxFlow(packetPushStarted)))
attr title "flow specific incoming data rate"
attr unit bps
vector 226 LoRaWANNetwork.loRaNodes[9].LoRaNic.queue flowOutgoingDataRate:vector ETV
attr interpolationmode linear
attr recordingmode vector
attr source throughput(flowPacketLength(demuxFlow(packetPulled)))
attr title "flow specific outgoing data rate"
attr unit bps
vector 227 LoRaWANNetwork.loRaNodes[9].LoRaNic.mac packetDropIncorrectlyReceived:vector(packetBytes) ETV
attr interpolationmode none
attr recordingmode vector(packetBytes)
attr source packetDropReasonIsIncorrectlyReceived(packetDropped)
attr title "packet drop: incorrectly received, packetBytes"
vector 228 LoRaWANNetwork.loRaNodes[9].LoRaNic.mac packetDropNotAddressedToUs:vector(packetBytes) ETV
attr interpolationmode none
attr recordingmode vector(packetBytes)
attr source packetDropReasonIsNotAddressedToUs(packetDropped)
attr title "packet drop: not addressed to us, packetBytes"
vector 229 LoRaWANNetwork.loRaNodes[9].LoRaNic.mac packetDropQueueOverflow:vector(packetBytes) ETV
attr interpolationmode none
attr recordingmode vector(packetBytes)
attr source packetDropReasonIsQueueOverflow(packetDropped)
attr title "packet drop: queue overflow, packetBytes"
vector 230 LoRaWANNetwork.loRaNodes[9].LoRaNic.mac packetDropRetryLimitReached:vector(packetBytes) ETV
attr interpolationmode none
attr recordingmode vector(packetBytes)
attr source packetDropReasonIsRetryLimitReached(packetDropped)
attr title "packet drop: retry limit reached, packetBytes"
vector 231 LoRaWANNetwork.loRaNodes[9].LoRaNic.radio.energyConsumer powerConsumption:vector ETV
attr interpolationmode sample-hold
attr recordingmode vector
attr source powerConsumptionChanged
attr title "Power consumption"
vector 232 LoRaWANNetwork.loRaNodes[9].LoRaNic.radio.IdealEpEnergyStorage powerConsumption:vector ETV
attr interpolationmode sample-hold
attr recordingmode vector
attr source powerConsumptionChanged
attr title "Power consumption"
vector 233 LoRaWANNetwork.loRaNodes[9].LoRaNic.radio.IdealEpEnergyStorage powerGeneration:vector ETV
attr interpolationmode sample-hold
attr recordingmode vector
attr source powerGenerationChanged
attr title "Power generation"
vector 234 LoRaWANNetwork.loRaNodes[9].LoRaNic.radio.IdealEpEnergyStorage residualEnergyCapacity:vector ETV
attr interpolationmode linear
attr recordingmode vector
attr source residualEnergyCapacityChanged
attr title "Residual energy capacity"
vector 235 LoRaWANNetwork.loRaNodes[9].LoRaNic.radio radioMode:vector ETV
attr interpolationmode sample-hold
attr recordingmode vector
attr source radioModeChanged
attr title "Radio mode"
vector 236 LoRaWANNetwork.loRaNodes[9].LoRaNic.radio receptionState:vector ETV
attr interpolationmode sample-hold
attr recordingmode vector
attr source receptionStateChanged
attr title "Radio reception state"
vector 237 LoRaWANNetwork.loRaNodes[9].LoRaNic.radio transmissionState:vector ETV
attr interpolationmode sample-hold
attr recordingmode vector
attr source transmissionStateChanged
attr title "Radio transmission state"
vector 238 LoRaWANNetwork.loRaNodes[9].LoRaNic packetDropInterfaceDown:vector(packetBytes) ETV
attr interpolationmode none
attr recordingmode vector(packetBytes)
attr source packetDropReasonIsInterfaceDown(packetDropped)
attr title "packet drops: interface down, packetBytes"
vector 239 LoRaWANNetwork.loRaNodes[9].LoRaNic packetDropNoCarrier:vector(packetBytes) ETV
attr interpolationmode none
attr recordingmode vector(packetBytes)
attr source packetDropReasonIsNoCarrier(packetDropped)
attr title "packet drops: no carrier, packetBytes"
vector 240 LoRaWANNetwork.loRaNodes[10].LoRaNic.queue queueLength:vector ETV
attr autoWarmupFilter false
attr interpolationmode sample-hold
attr recordingmode vector
attr source "warmup(atomic(constant0(packetPushEnded) + count(packetPushStarted) - count(packetPulled) - count(packetRemoved) - count(packetDropped)))"
attr title "queue length"
attr unit pk
vector 241 LoRaWANNetwork.loRaNodes[10].LoRaNic.queue queueBitLength:vector ETV
attr autoWarmupFilter false
attr interpolationmode sample-hold
attr recordingmode vector
attr source "warmup(atomic(constant0(packetPushEnded) + sum(packetLength(packetPushStarted)) - sum(packetLength(packetPulled)) - sum(packetLength(packetRemoved)) - sum(packetLength(packetDropped))))"
attr title "queue bit length"
attr unit b
vector 242 LoRaWANNetwork.loRaNodes[10].LoRaNic.queue queueingTime:vector ETV
attr interpolationmode none
attr recordingmode vector
attr source queueingTime(packetPulled)
attr title "queueing times"
attr unit s
vector 243 LoRaWANNetwork.loRaNodes[10].LoRaNic.queue incomingPacketLengths:vector ETV
attr interpolationmode none
attr recordingmode vector
attr source packetLength(packetPushStarted)
attr title "incoming packet lengths"
attr unit b
vector 244 LoRaWANNetwork.loRaNodes[10].LoRaNic.queue incomingDataRate:vector ETV
attr interpolationmode linear
attr recordingmode vector
attr source throughput(packetPushStarted)
attr title "incoming datarate"
attr unit bps
vector 245 LoRaWANNetwork.loRaNodes[10].LoRaNic.queue outgoingPacketLengths:vector ETV
attr interpolationmode none
attr recordingmode vector
attr source packetLength(packetPulled)
attr title "outgoing packet lengths"
attr unit b
vector 246 LoRaWANNetwork.loRaNodes[10].LoRaNic.queue outgoingDataRate:vector ETV
attr interpolationmode linear
attr recordingmode vector
attr source throughput(packetPulled)
attr title "outgoing datarate"
attr unit bps
vector 247 LoRaWANNetwork.loRaNodes[10].LoRaNic.queue droppedPacketLengthsQueueOverflow:vector ETV
attr interpolationmode none
attr recordingmode vector
attr source packetLength(packetDropReasonIsQueueOverflow(packetDropped))
attr title "dropped packet lengths: queue overflow"
attr unit b
vector 248 LoRaWANNetwork.loRaNodes[10].LoRaNic.queue flowQueueingTime:vector ETV
attr interpolationmode none
attr recordingmode vector
attr source queueingTime(demuxFlow(packetPulled))
attr title "flow queueing times"
attr unit s
vector 249 LoRaWANNetwork.loRaNodes[10].LoRaNic.queue flowIncomingDataRate:vector ETV
attr interpolationmode linear
attr recordingmode vector
attr source throughput(flowPacketLength(demuxFlow(packetPushStarted)))
attr title "flow specific incoming data rate"
attr unit bps
vector 250 LoRaWANNetwork.loRaNodes[10].LoRaNic.queue flowOutgoingDataRate:vector ETV
attr interpolationmode linear
attr recordingmode vector
attr source throughput(flowPacketLength(demuxFlow(packetPulled)))
attr title "flow specific outgoing data rate"
attr unit bps
vector 251 LoRaWANNetwork.loRaNodes[10].LoRaNic.mac packetDropIncorrectlyReceived:vector(packetBytes) ETV
attr interpolationmode none
attr recordingmode vector(packetBytes)
attr source packetDropReasonIsIncorrectlyReceived(packetDropped)
attr title "packet drop: incorrectly received, packetBytes"
vector 252 LoRaWANNetwork.loRaNodes[10].LoRaNic.mac packetDropNotAddressedToUs:vector(packetBytes) ETV
attr interpolationmode none
attr recordingmode vector(packetBytes)
attr source packetDropReasonIsNotAddressedToUs(packetDropped)
attr title "packet drop: not addressed to us, packetBytes"
vector 253 LoRaWANNetwork.loRaNodes[10].LoRaNic.mac packetDropQueueOverflow:vector(packetBytes) ETV
attr interpolationmode none
attr recordingmode vector(packetBytes)
attr source packetDropReasonIsQueueOverflow(packetDropped)
attr title "packet drop: queue overflow, packetBytes"
vector 254 LoRaWANNetwork.loRaNodes[10].LoRaNic.mac packetDropRetryLimitReached:vector(packetBytes) ETV
attr interpolationmode none
attr recordingmode vector(packetBytes)
attr source packetDropReasonIsRetryLimitReached(packetDropped)
attr title "packet drop: retry limit reached, packetBytes"
vector 255 LoRaWANNetwork.loRaNodes[10].LoRaNic.radio.energyConsumer powerConsumption:vector ETV
attr interpolationmode sample-hold
attr recordingmode vector
attr source powerConsumptionChanged
attr title "Power consumption"
vector 256 LoRaWANNetwork.loRaNodes[10].LoRaNic.radio.IdealEpEnergyStorage powerConsumption:vector ETV
attr interpolationmode sample-hold
attr recordingmode vector
attr source powerConsumptionChanged
attr title "Power consumption"
vector 257 LoRaWANNetwork.loRaNodes[10].LoRaNic.radio.IdealEpEnergyStorage powerGeneration:vector ETV
attr interpolationmode sample-hold
attr recordingmode vector
attr source powerGenerationChanged
attr title "Power generation"
vector 258 LoRaWANNetwork.loRaNodes[10].LoRaNic.radio.IdealEpEnergyStorage residualEnergyCapacity:vector ETV
attr interpolationmode linear
attr recordingmode vector
attr source residualEnergyCapacityChanged
attr title "Residual energy capacity"
vector 259 LoRaWANNetwork.loRaNodes[10].LoRaNic.radio radioMode:vector ETV
attr interpolationmode sample-hold
attr recordingmode vector
attr source radioModeChanged
attr title "Radio mode"
vector 260 LoRaWANNetwork.loRaNodes[10].LoRaNic.radio receptionState:vector ETV
attr interpolationmode sample-hold
attr recordingmode vector
attr source receptionStateChanged
attr title "Radio reception state"
vector 261 LoRaWANNetwork.loRaNodes[10].LoRaNic.radio transmissionState:vector ETV
attr interpolationmode sample-hold
attr recordingmode vector
attr source transmissionStateChanged
attr title "Radio transmission state"
vector 262 LoRaWANNetwork.loRaNodes[10].LoRaNic packetDropInterfaceDown:vector(packetBytes) ETV
attr interpolationmode none
attr recordingmode vector(packetBytes)
attr source packetDropReasonIsInterfaceDown(packetDropped)
attr title "packet drops: interface down, packetBytes"
vector 263 LoRaWANNetwork.loRaNodes[10].LoRaNic packetDropNoCarrier:vector(packetBytes) ETV
attr interpolationmode none
attr recordingmode vector(packetBytes)
attr source packetDropReasonIsNoCarrier(packetDropped)
attr title "packet drops: no carrier, packetBytes"
[...]
vector 3124 LoRaWANNetwork.nsRouter.ipv4.ip packetDropUndefined:vector(packetBytes) ETV
attr interpolationmode none
attr recordingmode vector(packetBytes)
attr source packetDropReasonIsUndefined(packetDropped)
attr title "packet drop: undefined, packetBytes"
vector 3125 LoRaWANNetwork.nsRouter.ipv4.arp arpRequestSent:vector(packetBytes) ETV
attr recordingmode vector(packetBytes)
attr source arpRequestSent
attr title "ARP request sent, packetBytes"
vector 3126 LoRaWANNetwork.nsRouter.ipv4.arp arpReplySent:vector(packetBytes) ETV
attr recordingmode vector(packetBytes)
attr source arpReplySent
attr title "ARP replies sent, packetBytes"
0	815304 40 0 0 0 0 5 0 0 0 0
1	815344 40 0 0 0 0 5 0 0 0 0
15	815384 27 0 0 0 0 3 0 0 0 0
16	815411 36 0 0 0 0 4 0 0 0 0
19	815447 27 0 0 0 0 3 0 1 1 1
24	815474 45 0 0 0 0 5 0 0 0 0
25	815519 45 0 0 0 0 5 0 0 0 0
39	815564 27 0 0 0 0 3 0 0 0 0
40	815591 36 0 0 0 0 4 0 0 0 0
43	815627 27 0 0 0 0 3 0 1 1 1
48	815654 45 0 0 0 0 5 0 0 0 0
49	815699 45 0 0 0 0 5 0 0 0 0
63	815744 27 0 0 0 0 3 0 0 0 0
64	815771 36 0 0 0 0 4 0 0 0 0
67	815807 27 0 0 0 0 3 0 1 1 1
72	815834 45 0 0 0 0 5 0 0 0 0
73	815879 45 0 0 0 0 5 0 0 0 0
87	815924 27 0 0 0 0 3 0 0 0 0
88	815951 36 0 0 0 0 4 0 0 0 0
91	815987 27 0 0 0 0 3 0 1 1 1
96	816014 45 0 0 0 0 5 0 0 0 0
97	816059 45 0 0 0 0 5 0 0 0 0
111	816104 30 0 0 0 0 3 0 0 0 0
112	816134 40 0 0 0 0 4 0 0 0 0
115	816174 30 0 0 0 0 3 0 1 1 1
120	816204 50 0 0 0 0 5 0 0 0 0
121	816254 50 0 0 0 0 5 0 0 0 0
135	816304 30 0 0 0 0 3 0 0 0 0
136	816334 40 0 0 0 0 4 0 0 0 0
139	816374 30 0 0 0 0 3 0 1 1 1
144	816404 50 0 0 0 0 5 0 0 0 0
145	816454 50 0 0 0 0 5 0 0 0 0
159	816504 30 0 0 0 0 3 0 0 0 0
160	816534 40 0 0 0 0 4 0 0 0 0
163	816574 30 0 0 0 0 3 0 1 1 1
168	816604 50 0 0 0 0 5 0 0 0 0
169	816654 50 0 0 0 0 5 0 0 0 0
183	816704 30 0 0 0 0 3 0 0 0 0
184	816734 40 0 0 0 0 4 0 0 0 0
187	816774 30 0 0 0 0 3 0 1 1 1
192	816804 50 0 0 0 0 5 0 0 0 0
193	816854 50 0 0 0 0 5 0 0 0 0
207	816904 30 0 0 0 0 3 0 0 0 0
208	816934 40 0 0 0 0 4 0 0 0 0
211	816974 30 0 0 0 0 3 0 1 1 1
216	817004 50 0 0 0 0 5 0 0 0 0
217	817054 50 0 0 0 0 5 0 0 0 0
231	817104 30 0 0 0 0 3 0 0 0 0
232	817134 40 0 0 0 0 4 0 0 0 0
235	817174 30 0 0 0 0 3 0 1 1 1
240	817204 50 0 0 0 0 5 0 0 0 0
241	817254 50 0 0 0 0 5 0 0 0 0
255	817304 30 0 0 0 0 3 0 0 0 0
256	817334 40 0 0 0 0 4 0 0 0 0
259	817374 30 0 0 0 0 3 0 1 1 1
264	817404 50 0 0 0 0 5 0 0 0 0
265	817454 50 0 0 0 0 5 0 0 0 0
279	817504 30 0 0 0 0 3 0 0 0 0
280	817534 40 0 0 0 0 4 0 0 0 0
283	817574 30 0 0 0 0 3 0 1 1 1
288	817604 50 0 0 0 0 5 0 0 0 0
289	817654 50 0 0 0 0 5 0 0 0 0
303	817704 30 0 0 0 0 3 0 0 0 0
304	817734 40 0 0 0 0 4 0 0 0 0
307	817774 30 0 0 0 0 3 0 1 1 1
312	817804 50 0 0 0 0 5 0 0 0 0
313	817854 50 0 0 0 0 5 0 0 0 0
327	817904 30 0 0 0 0 3 0 0 0 0
328	817934 40 0 0 0 0 4 0 0 0 0
331	817974 30 0 0 0 0 3 0 1 1 1
336	818004 50 0 0 0 0 5 0 0 0 0
337	818054 50 0 0 0 0 5 0 0 0 0
351	818104 30 0 0 0 0 3 0 0 0 0
352	818134 40 0 0 0 0 4 0 0 0 0
355	818174 30 0 0 0 0 3 0 1 1 1
360	818204 50 0 0 0 0 5 0 0 0 0
361	818254 50 0 0 0 0 5 0 0 0 0
375	818304 30 0 0 0 0 3 0 0 0 0
376	818334 40 0 0 0 0 4 0 0 0 0
379	818374 30 0 0 0 0 3 0 1 1 1
384	818404 50 0 0 0 0 5 0 0 0 0
385	818454 50 0 0 0 0 5 0 0 0 0
399	818504 30 0 0 0 0 3 0 0 0 0
400	818534 40 0 0 0 0 4 0 0 0 0
403	818574 30 0 0 0 0 3 0 1 1 1
408	818604 50 0 0 0 0 5 0 0 0 0
409	818654 50 0 0 0 0 5 0 0 0 0
423	818704 30 0 0 0 0 3 0 0 0 0
424	818734 40 0 0 0 0 4 0 0 0 0
427	818774 30 0 0 0 0 3 0 1 1 1
432	818804 50 0 0 0 0 5 0 0 0 0
433	818854 50 0 0 0 0 5 0 0 0 0
447	818904 30 0 0 0 0 3 0 0 0 0
448	818934 40 0 0 0 0 4 0 0 0 0
451	818974 30 0 0 0 0 3 0 1 1 1
456	819004 50 0 0 0 0 5 0 0 0 0
457	819054 50 0 0 0 0 5 0 0 0 0
471	819104 30 0 0 0 0 3 0 0 0 0
472	819134 40 0 0 0 0 4 0 0 0 0
475	819174 30 0 0 0 0 3 0 1 1 1
480	819204 50 0 0 0 0 5 0 0 0 0
481	819254 50 0 0 0 0 5 0 0 0 0
495	819304 30 0 0 0 0 3 0 0 0 0
496	819334 40 0 0 0 0 4 0 0 0 0
499	819374 30 0 0 0 0 3 0 1 1 1
504	819404 50 0 0 0 0 5 0 0 0 0
505	819454 50 0 0 0 0 5 0 0 0 0
519	819504 30 0 0 0 0 3 0 0 0 0
520	819534 40 0 0 0 0 4 0 0 0 0
523	819574 30 0 0 0 0 3 0 1 1 1
528	819604 50 0 0 0 0 5 0 0 0 0
529	819654 50 0 0 0 0 5 0 0 0 0
543	819704 30 0 0 0 0 3 0 0 0 0
544	819734 40 0 0 0 0 4 0 0 0 0
547	819774 30 0 0 0 0 3 0 1 1 1
552	819804 50 0 0 0 0 5 0 0 0 0
553	819854 50 0 0 0 0 5 0 0 0 0
567	819904 30 0 0 0 0 3 0 0 0 0
568	819934 40 0 0 0 0 4 0 0 0 0
571	819974 30 0 0 0 0 3 0 1 1 1
576	820004 50 0 0 0 0 5 0 0 0 0
577	820054 50 0 0 0 0 5 0 0 0 0
591	820104 30 0 0 0 0 3 0 0 0 0
592	820134 40 0 0 0 0 4 0 0 0 0
595	820174 30 0 0 0 0 3 0 1 1 1
600	820204 50 0 0 0 0 5 0 0 0 0
601	820254 50 0 0 0 0 5 0 0 0 0
615	820304 30 0 0 0 0 3 0 0 0 0
616	820334 40 0 0 0 0 4 0 0 0 0
619	820374 30 0 0 0 0 3 0 1 1 1
624	820404 50 0 0 0 0 5 0 0 0 0
625	820454 50 0 0 0 0 5 0 0 0 0
639	820504 30 0 0 0 0 3 0 0 0 0
640	820534 40 0 0 0 0 4 0 0 0 0
643	820574 30 0 0 0 0 3 0 1 1 1
648	820604 50 0 0 0 0 5 0 0 0 0
649	820654 50 0 0 0 0 5 0 0 0 0
663	820704 30 0 0 0 0 3 0 0 0 0
664	820734 40 0 0 0 0 4 0 0 0 0
667	820774 30 0 0 0 0 3 0 1 1 1
672	820804 50 0 0 0 0 5 0 0 0 0
673	820854 50 0 0 0 0 5 0 0 0 0
687	820904 30 0 0 0 0 3 0 0 0 0
688	820934 40 0 0 0 0 4 0 0 0 0
691	820974 30 0 0 0 0 3 0 1 1 1
696	821004 50 0 0 0 0 5 0 0 0 0
697	821054 50 0 0 0 0 5 0 0 0 0
711	821104 30 0 0 0 0 3 0 0 0 0
712	821134 40 0 0 0 0 4 0 0 0 0
715	821174 30 0 0 0 0 3 0 1 1 1
720	821204 50 0 0 0 0 5 0 0 0 0
721	821254 50 0 0 0 0 5 0 0 0 0
735	821304 30 0 0 0 0 3 0 0 0 0
736	821334 40 0 0 0 0 4 0 0 0 0
739	821374 30 0 0 0 0 3 0 1 1 1
744	821404 50 0 0 0 0 5 0 0 0 0
745	821454 50 0 0 0 0 5 0 0 0 0
759	821504 30 0 0 0 0 3 0 0 0 0
760	821534 40 0 0 0 0 4 0 0 0 0
763	821574 30 0 0 0 0 3 0 1 1 1
768	821604 50 0 0 0 0 5 0 0 0 0
769	821654 50 0 0 0 0 5 0 0 0 0
783	821704 30 0 0 0 0 3 0 0 0 0
784	821734 40 0 0 0 0 4 0 0 0 0
787	821774 30 0 0 0 0 3 0 1 1 1
792	821804 50 0 0 0 0 5 0 0 0 0
793	821854 50 0 0 0 0 5 0 0 0 0
807	821904 30 0 0 0 0 3 0 0 0 0
808	821934 40 0 0 0 0 4 0 0 0 0
811	821974 30 0 0 0 0 3 0 1 1 1
816	822004 50 0 0 0 0 5 0 0 0 0
817	822054 50 0 0 0 0 5 0 0 0 0
831	822104 30 0 0 0 0 3 0 0 0 0
832	822134 40 0 0 0 0 4 0 0 0 0
835	822174 30 0 0 0 0 3 0 1 1 1
840	822204 50 0 0 0 0 5 0 0 0 0
841	822254 50 0 0 0 0 5 0 0 0 0
855	822304 30 0 0 0 0 3 0 0 0 0
856	822334 40 0 0 0 0 4 0 0 0 0
859	822374 30 0 0 0 0 3 0 1 1 1
864	822404 50 0 0 0 0 5 0 0 0 0
865	822454 50 0 0 0 0 5 0 0 0 0
879	822504 30 0 0 0 0 3 0 0 0 0
880	822534 40 0 0 0 0 4 0 0 0 0
883	822574 30 0 0 0 0 3 0 1 1 1
888	822604 50 0 0 0 0 5 0 0 0 0
889	822654 50 0 0 0 0 5 0 0 0 0
903	822704 30 0 0 0 0 3 0 0 0 0
904	822734 40 0 0 0 0 4 0 0 0 0
907	822774 30 0 0 0 0 3 0 1 1 1
912	822804 50 0 0 0 0 5 0 0 0 0
913	822854 50 0 0 0 0 5 0 0 0 0
927	822904 30 0 0 0 0 3 0 0 0 0
928	822934 40 0 0 0 0 4 0 0 0 0
931	822974 30 0 0 0 0 3 0 1 1 1
936	823004 50 0 0 0 0 5 0 0 0 0
937	823054 50 0 0 0 0 5 0 0 0 0
951	823104 30 0 0 0 0 3 0 0 0 0
952	823134 40 0 0 0 0 4 0 0 0 0
955	823174 30 0 0 0 0 3 0 1 1 1
960	823204 50 0 0 0 0 5 0 0 0 0
961	823254 50 0 0 0 0 5 0 0 0 0
975	823304 30 0 0 0 0 3 0 0 0 0
976	823334 40 0 0 0 0 4 0 0 0 0
979	823374 30 0 0 0 0 3 0 1 1 1
984	823404 50 0 0 0 0 5 0 0 0 0
985	823454 50 0 0 0 0 5 0 0 0 0
999	823504 30 0 0 0 0 3 0 0 0 0
1000	823534 44 0 0 0 0 4 0 0 0 0
1003	823578 33 0 0 0 0 3 0 1 1 1
1008	823611 55 0 0 0 0 5 0 0 0 0
1009	823666 55 0 0 0 0 5 0 0 0 0
1023	823721 33 0 0 0 0 3 0 0 0 0
1024	823754 44 0 0 0 0 4 0 0 0 0
1027	823798 33 0 0 0 0 3 0 1 1 1
1032	823831 55 0 0 0 0 5 0 0 0 0
1033	823886 55 0 0 0 0 5 0 0 0 0
1047	823941 33 0 0 0 0 3 0 0 0 0
1048	823974 44 0 0 0 0 4 0 0 0 0
1051	824018 33 0 0 0 0 3 0 1 1 1
1056	824051 55 0 0 0 0 5 0 0 0 0
1057	824106 55 0 0 0 0 5 0 0 0 0
1071	824161 33 0 0 0 0 3 0 0 0 0
1072	824194 44 0 0 0 0 4 0 0 0 0
1075	824238 33 0 0 0 0 3 0 1 1 1
1080	824271 55 0 0 0 0 5 0 0 0 0
1081	824326 55 0 0 0 0 5 0 0 0 0
1095	824381 33 0 0 0 0 3 0 0 0 0
1096	824414 44 0 0 0 0 4 0 0 0 0
1099	824458 33 0 0 0 0 3 0 1 1 1
1104	824491 55 0 0 0 0 5 0 0 0 0
1105	824546 55 0 0 0 0 5 0 0 0 0
1119	824601 33 0 0 0 0 3 0 0 0 0
1120	824634 44 0 0 0 0 4 0 0 0 0
1123	824678 33 0 0 0 0 3 0 1 1 1
1128	824711 55 0 0 0 0 5 0 0 0 0
1129	824766 55 0 0 0 0 5 0 0 0 0
1143	824821 33 0 0 0 0 3 0 0 0 0
1144	824854 44 0 0 0 0 4 0 0 0 0
1147	824898 33 0 0 0 0 3 0 1 1 1
1152	824931 55 0 0 0 0 5 0 0 0 0
1153	824986 55 0 0 0 0 5 0 0 0 0
1167	825041 33 0 0 0 0 3 0 0 0 0
1168	825074 44 0 0 0 0 4 0 0 0 0
1171	825118 33 0 0 0 0 3 0 1 1 1
1176	825151 55 0 0 0 0 5 0 0 0 0
1177	825206 55 0 0 0 0 5 0 0 0 0
1191	825261 33 0 0 0 0 3 0 0 0 0
1192	825294 44 0 0 0 0 4 0 0 0 0
1195	825338 33 0 0 0 0 3 0 1 1 1
1200	825371 55 0 0 0 0 5 0 0 0 0
1201	825426 55 0 0 0 0 5 0 0 0 0
1215	825481 33 0 0 0 0 3 0 0 0 0
1216	825514 44 0 0 0 0 4 0 0 0 0
1219	825558 33 0 0 0 0 3 0 1 1 1
1224	825591 55 0 0 0 0 5 0 0 0 0
1225	825646 55 0 0 0 0 5 0 0 0 0
1239	825701 33 0 0 0 0 3 0 0 0 0
1240	825734 44 0 0 0 0 4 0 0 0 0
1243	825778 33 0 0 0 0 3 0 1 1 1
1248	825811 55 0 0 0 0 5 0 0 0 0
1249	825866 55 0 0 0 0 5 0 0 0 0
1263	825921 33 0 0 0 0 3 0 0 0 0
1264	825954 44 0 0 0 0 4 0 0 0 0
1267	825998 33 0 0 0 0 3 0 1 1 1
1272	826031 55 0 0 0 0 5 0 0 0 0
1273	826086 55 0 0 0 0 5 0 0 0 0
1287	826141 33 0 0 0 0 3 0 0 0 0
1288	826174 44 0 0 0 0 4 0 0 0 0
1291	826218 33 0 0 0 0 3 0 1 1 1
1296	826251 55 0 0 0 0 5 0 0 0 0
1297	826306 55 0 0 0 0 5 0 0 0 0
1311	826361 33 0 0 0 0 3 0 0 0 0
1312	826394 44 0 0 0 0 4 0 0 0 0
1315	826438 33 0 0 0 0 3 0 1 1 1
1320	826471 55 0 0 0 0 5 0 0 0 0
1321	826526 55 0 0 0 0 5 0 0 0 0
1335	826581 33 0 0 0 0 3 0 0 0 0
1336	826614 44 0 0 0 0 4 0 0 0 0
1339	826658 33 0 0 0 0 3 0 1 1 1
1344	826691 55 0 0 0 0 5 0 0 0 0
1345	826746 55 0 0 0 0 5 0 0 0 0
1359	826801 33 0 0 0 0 3 0 0 0 0
1360	826834 44 0 0 0 0 4 0 0 0 0
1363	826878 33 0 0 0 0 3 0 1 1 1
1368	826911 55 0 0 0 0 5 0 0 0 0
1369	826966 55 0 0 0 0 5 0 0 0 0
1383	827021 33 0 0 0 0 3 0 0 0 0
1384	827054 44 0 0 0 0 4 0 0 0 0
1387	827098 33 0 0 0 0 3 0 1 1 1
1392	827131 55 0 0 0 0 5 0 0 0 0
1393	827186 55 0 0 0 0 5 0 0 0 0
1407	827241 33 0 0 0 0 3 0 0 0 0
1408	827274 44 0 0 0 0 4 0 0 0 0
1411	827318 33 0 0 0 0 3 0 1 1 1
1416	827351 55 0 0 0 0 5 0 0 0 0
1417	827406 55 0 0 0 0 5 0 0 0 0
1431	827461 33 0 0 0 0 3 0 0 0 0
1432	827494 44 0 0 0 0 4 0 0 0 0
1435	827538 33 0 0 0 0 3 0 1 1 1
1440	827571 55 0 0 0 0 5 0 0 0 0
1441	827626 55 0 0 0 0 5 0 0 0 0
1455	827681 33 0 0 0 0 3 0 0 0 0
1456	827714 44 0 0 0 0 4 0 0 0 0
1459	827758 33 0 0 0 0 3 0 1 1 1
1464	827791 55 0 0 0 0 5 0 0 0 0
1465	827846 55 0 0 0 0 5 0 0 0 0
1479	827901 33 0 0 0 0 3 0 0 0 0
1480	827934 44 0 0 0 0 4 0 0 0 0
1483	827978 33 0 0 0 0 3 0 1 1 1
1488	828011 55 0 0 0 0 5 0 0 0 0
1489	828066 55 0 0 0 0 5 0 0 0 0
1503	828121 33 0 0 0 0 3 0 0 0 0
1504	828154 44 0 0 0 0 4 0 0 0 0
1507	828198 33 0 0 0 0 3 0 1 1 1
1512	828231 55 0 0 0 0 5 0 0 0 0
1513	828286 55 0 0 0 0 5 0 0 0 0
1527	828341 33 0 0 0 0 3 0 0 0 0
1528	828374 44 0 0 0 0 4 0 0 0 0
1531	828418 33 0 0 0 0 3 0 1 1 1
1536	828451 55 0 0 0 0 5 0 0 0 0
1537	828506 55 0 0 0 0 5 0 0 0 0
1551	828561 33 0 0 0 0 3 0 0 0 0
1552	828594 44 0 0 0 0 4 0 0 0 0
1555	828638 33 0 0 0 0 3 0 1 1 1
1560	828671 55 0 0 0 0 5 0 0 0 0
1561	828726 55 0 0 0 0 5 0 0 0 0
1575	828781 33 0 0 0 0 3 0 0 0 0
1576	828814 44 0 0 0 0 4 0 0 0 0
1579	828858 33 0 0 0 0 3 0 1 1 1
1584	828891 55 0 0 0 0 5 0 0 0 0
1585	828946 55 0 0 0 0 5 0 0 0 0
1599	829001 33 0 0 0 0 3 0 0 0 0
1600	829034 44 0 0 0 0 4 0 0 0 0
1603	829078 33 0 0 0 0 3 0 1 1 1
1608	829111 55 0 0 0 0 5 0 0 0 0
1609	829166 55 0 0 0 0 5 0 0 0 0
1623	829221 33 0 0 0 0 3 0 0 0 0
1624	829254 44 0 0 0 0 4 0 0 0 0
1627	829298 33 0 0 0 0 3 0 1 1 1
1632	829331 55 0 0 0 0 5 0 0 0 0
1633	829386 55 0 0 0 0 5 0 0 0 0
1647	829441 33 0 0 0 0 3 0 0 0 0
1648	829474 44 0 0 0 0 4 0 0 0 0
1651	829518 33 0 0 0 0 3 0 1 1 1
1656	829551 55 0 0 0 0 5 0 0 0 0
1657	829606 55 0 0 0 0 5 0 0 0 0
1671	829661 33 0 0 0 0 3 0 0 0 0
1672	829694 44 0 0 0 0 4 0 0 0 0
1675	829738 33 0 0 0 0 3 0 1 1 1
1680	829771 55 0 0 0 0 5 0 0 0 0
1681	829826 55 0 0 0 0 5 0 0 0 0
1695	829881 33 0 0 0 0 3 0 0 0 0
1696	829914 44 0 0 0 0 4 0 0 0 0
1699	829958 33 0 0 0 0 3 0 1 1 1
1704	829991 55 0 0 0 0 5 0 0 0 0
1705	830046 55 0 0 0 0 5 0 0 0 0
1719	830101 33 0 0 0 0 3 0 0 0 0
1720	830134 44 0 0 0 0 4 0 0 0 0
1723	830178 33 0 0 0 0 3 0 1 1 1
1728	830211 55 0 0 0 0 5 0 0 0 0
1729	830266 55 0 0 0 0 5 0 0 0 0
1743	830321 33 0 0 0 0 3 0 0 0 0
1744	830354 44 0 0 0 0 4 0 0 0 0
1747	830398 33 0 0 0 0 3 0 1 1 1
1752	830431 55 0 0 0 0 5 0 0 0 0
1753	830486 55 0 0 0 0 5 0 0 0 0
1767	830541 33 0 0 0 0 3 0 0 0 0
1768	830574 44 0 0 0 0 4 0 0 0 0
1771	830618 33 0 0 0 0 3 0 1 1 1
1776	830651 55 0 0 0 0 5 0 0 0 0
1777	830706 55 0 0 0 0 5 0 0 0 0
1791	830761 33 0 0 0 0 3 0 0 0 0
1792	830794 44 0 0 0 0 4 0 0 0 0
1795	830838 33 0 0 0 0 3 0 1 1 1
1800	830871 55 0 0 0 0 5 0 0 0 0
1801	830926 55 0 0 0 0 5 0 0 0 0
1815	830981 33 0 0 0 0 3 0 0 0 0
1816	831014 44 0 0 0 0 4 0 0 0 0
1819	831058 33 0 0 0 0 3 0 1 1 1
1824	831091 55 0 0 0 0 5 0 0 0 0
1825	831146 55 0 0 0 0 5 0 0 0 0
1839	831201 33 0 0 0 0 3 0 0 0 0
1840	831234 44 0 0 0 0 4 0 0 0 0
1843	831278 33 0 0 0 0 3 0 1 1 1
1848	831311 55 0 0 0 0 5 0 0 0 0
1849	831366 55 0 0 0 0 5 0 0 0 0
1863	831421 33 0 0 0 0 3 0 0 0 0
1864	831454 44 0 0 0 0 4 0 0 0 0
1867	831498 33 0 0 0 0 3 0 1 1 1
1872	831531 55 0 0 0 0 5 0 0 0 0
1873	831586 55 0 0 0 0 5 0 0 0 0
1887	831641 33 0 0 0 0 3 0 0 0 0
1888	831674 44 0 0 0 0 4 0 0 0 0
1891	831718 33 0 0 0 0 3 0 1 1 1
1896	831751 55 0 0 0 0 5 0 0 0 0
1897	831806 55 0 0 0 0 5 0 0 0 0
1911	831861 33 0 0 0 0 3 0 0 0 0
1912	831894 44 0 0 0 0 4 0 0 0 0
1915	831938 33 0 0 0 0 3 0 1 1 1
1920	831971 55 0 0 0 0 5 0 0 0 0
1921	832026 55 0 0 0 0 5 0 0 0 0
1935	832081 33 0 0 0 0 3 0 0 0 0
1936	832114 44 0 0 0 0 4 0 0 0 0
1939	832158 33 0 0 0 0 3 0 1 1 1
1944	832191 55 0 0 0 0 5 0 0 0 0
1945	832246 55 0 0 0 0 5 0 0 0 0
1959	832301 33 0 0 0 0 3 0 0 0 0
1960	832334 44 0 0 0 0 4 0 0 0 0
1963	832378 33 0 0 0 0 3 0 1 1 1
1968	832411 55 0 0 0 0 5 0 0 0 0
1969	832466 55 0 0 0 0 5 0 0 0 0
1983	832521 33 0 0 0 0 3 0 0 0 0
1984	832554 44 0 0 0 0 4 0 0 0 0
1987	832598 33 0 0 0 0 3 0 1 1 1
1992	832631 55 0 0 0 0 5 0 0 0 0
1993	832686 55 0 0 0 0 5 0 0 0 0
2007	832741 33 0 0 0 0 3 0 0 0 0
2008	832774 44 0 0 0 0 4 0 0 0 0
2011	832818 33 0 0 0 0 3 0 1 1 1
2016	832851 55 0 0 0 0 5 0 0 0 0
2017	832906 55 0 0 0 0 5 0 0 0 0
2031	832961 33 0 0 0 0 3 0 0 0 0
2032	832994 44 0 0 0 0 4 0 0 0 0
2035	833038 33 0 0 0 0 3 0 1 1 1
2040	833071 55 0 0 0 0 5 0 0 0 0
2041	833126 55 0 0 0 0 5 0 0 0 0
2055	833181 33 0 0 0 0 3 0 0 0 0
2056	833214 44 0 0 0 0 4 0 0 0 0
2059	833258 33 0 0 0 0 3 0 1 1 1
2064	833291 55 0 0 0 0 5 0 0 0 0
2065	833346 55 0 0 0 0 5 0 0 0 0
2079	833401 33 0 0 0 0 3 0 0 0 0
2080	833434 44 0 0 0 0 4 0 0 0 0
2083	833478 33 0 0 0 0 3 0 1 1 1
2088	833511 55 0 0 0 0 5 0 0 0 0
2089	833566 55 0 0 0 0 5 0 0 0 0
2103	833621 33 0 0 0 0 3 0 0 0 0
2104	833654 44 0 0 0 0 4 0 0 0 0
2107	833698 33 0 0 0 0 3 0 1 1 1
2112	833731 55 0 0 0 0 5 0 0 0 0
2113	833786 55 0 0 0 0 5 0 0 0 0
2127	833841 33 0 0 0 0 3 0 0 0 0
2128	833874 44 0 0 0 0 4 0 0 0 0
2131	833918 33 0 0 0 0 3 0 1 1 1
2136	833951 55 0 0 0 0 5 0 0 0 0
2137	834006 55 0 0 0 0 5 0 0 0 0
2151	834061 33 0 0 0 0 3 0 0 0 0
2152	834094 44 0 0 0 0 4 0 0 0 0
2155	834138 33 0 0 0 0 3 0 1 1 1
2160	834171 55 0 0 0 0 5 0 0 0 0
2161	834226 55 0 0 0 0 5 0 0 0 0
2175	834281 33 0 0 0 0 3 0 0 0 0
2176	834314 44 0 0 0 0 4 0 0 0 0
2179	834358 33 0 0 0 0 3 0 1 1 1
2184	834391 55 0 0 0 0 5 0 0 0 0
2185	834446 55 0 0 0 0 5 0 0 0 0
2199	834501 33 0 0 0 0 3 0 0 0 0
2200	834534 44 0 0 0 0 4 0 0 0 0
2203	834578 33 0 0 0 0 3 0 1 1 1
2208	834611 55 0 0 0 0 5 0 0 0 0
2209	834666 55 0 0 0 0 5 0 0 0 0
2223	834721 33 0 0 0 0 3 0 0 0 0
2224	834754 44 0 0 0 0 4 0 0 0 0
2227	834798 33 0 0 0 0 3 0 1 1 1
2232	834831 55 0 0 0 0 5 0 0 0 0
2233	834886 55 0 0 0 0 5 0 0 0 0
2247	834941 33 0 0 0 0 3 0 0 0 0
2248	834974 44 0 0 0 0 4 0 0 0 0
2251	835018 33 0 0 0 0 3 0 1 1 1
2256	835051 55 0 0 0 0 5 0 0 0 0
2257	835106 55 0 0 0 0 5 0 0 0 0
2271	835161 33 0 0 0 0 3 0 0 0 0
2272	835194 44 0 0 0 0 4 0 0 0 0
2275	835238 33 0 0 0 0 3 0 1 1 1
2280	835271 55 0 0 0 0 5 0 0 0 0
2281	835326 55 0 0 0 0 5 0 0 0 0
2295	835381 33 0 0 0 0 3 0 0 0 0
2296	835414 44 0 0 0 0 4 0 0 0 0
2299	835458 33 0 0 0 0 3 0 1 1 1
2304	835491 55 0 0 0 0 5 0 0 0 0
2305	835546 55 0 0 0 0 5 0 0 0 0
2319	835601 33 0 0 0 0 3 0 0 0 0
2320	835634 44 0 0 0 0 4 0 0 0 0
2323	835678 33 0 0 0 0 3 0 1 1 1
2328	835711 55 0 0 0 0 5 0 0 0 0
2329	835766 55 0 0 0 0 5 0 0 0 0
2343	835821 33 0 0 0 0 3 0 0 0 0
2344	835854 44 0 0 0 0 4 0 0 0 0
2347	835898 33 0 0 0 0 3 0 1 1 1
2352	835931 55 0 0 0 0 5 0 0 0 0
2353	835986 55 0 0 0 0 5 0 0 0 0
2367	836041 33 0 0 0 0 3 0 0 0 0
2368	836074 44 0 0 0 0 4 0 0 0 0
2371	836118 33 0 0 0 0 3 0 1 1 1
2376	836151 55 0 0 0 0 5 0 0 0 0
2377	836206 55 0 0 0 0 5 0 0 0 0
2391	836261 33 0 0 0 0 3 0 0 0 0
2392	836294 44 0 0 0 0 4 0 0 0 0
2395	836338 33 0 0 0 0 3 0 1 1 1
2400	836371 33 0 0 0 0 3 0 4 4 16
2401	836404 11 0 0 0 0 1 1 1 1 1
2402	836415 11 0 0 0 0 1 1 1 1 1
2405	836426 55 0 0 0 0 5 0 0 0 0
2406	836481 55 0 0 0 0 5 0 0 0 0
2429	836536 11 0 0 0 0 1 0 0 0 0
2430	836547 11 0 0 0 0 1 0 0 0 0
2431	836558 11 0 0 0 0 1 0 0 0 0
2443	836569 33 0 0 0 0 3 0 4 4 16
2444	836602 11 0 0 0 0 1 1 1 1 1
2445	836613 11 0 0 0 0 1 1 1 1 1
2448	836624 55 0 0 0 0 5 0 0 0 0
2449	836679 55 0 0 0 0 5 0 0 0 0
2472	836734 11 0 0 0 0 1 0 0 0 0
2473	836745 11 0 0 0 0 1 0 0 0 0
2474	836756 11 0 0 0 0 1 0 0 0 0
2486	836767 33 0 0 0 0 3 0 4 4 16
2487	836800 11 0 0 0 0 1 1 1 1 1
2488	836811 11 0 0 0 0 1 1 1 1 1
2491	836822 55 0 0 0 0 5 0 0 0 0
2492	836877 55 0 0 0 0 5 0 0 0 0
2515	836932 11 0 0 0 0 1 0 0 0 0
2516	836943 11 0 0 0 0 1 0 0 0 0
2517	836954 11 0 0 0 0 1 0 0 0 0
2529	836965 33 0 0 0 0 3 0 4 4 16
2530	836998 11 0 0 0 0 1 1 1 1 1
2531	837009 11 0 0 0 0 1 1 1 1 1
2534	837020 55 0 0 0 0 5 0 0 0 0
2535	837075 55 0 0 0 0 5 0 0 0 0
2558	837130 11 0 0 0 0 1 0 0 0 0
2559	837141 11 0 0 0 0 1 0 0 0 0
2560	837152 11 0 0 0 0 1 0 0 0 0
2572	837163 33 0 0 0 0 3 0 4 4 16
2573	837196 11 0 0 0 0 1 1 1 1 1
2574	837207 11 0 0 0 0 1 1 1 1 1
2577	837218 55 0 0 0 0 5 0 0 0 0
2578	837273 55 0 0 0 0 5 0 0 0 0
2601	837328 11 0 0 0 0 1 0 0 0 0
2602	837339 11 0 0 0 0 1 0 0 0 0
2603	837350 11 0 0 0 0 1 0 0 0 0
2622	837361 55 0 0 0 0 5 0 0 0 0
2623	837416 55 0 0 0 0 5 0 0 0 0
2654	837471 11 0 0 0 0 1 0 0 0 0
2655	837482 11 0 0 0 0 1 0 0 0 0
2656	837493 11 0 0 0 0 1 0 0 0 0
2657	837504 55 0 0 0 0 5 0 0 0 0
2658	837559 55 0 0 0 0 5 0 0 0 0
2668	837614 11 0 0 0 0 1 0 0 0 0
2677	837625 55 0 0 0 0 5 0 0 0 0
2678	837680 55 0 0 0 0 5 0 0 0 0
2688	837735 11 0 0 0 0 1 0 0 0 0
2697	837746 55 0 0 0 0 5 0 0 0 0
2698	837801 55 0 0 0 0 5 0 0 0 0
2708	837856 11 0 0 0 0 1 0 0 0 0
2717	837867 55 0 0 0 0 5 0 0 0 0
2718	837922 55 0 0 0 0 5 0 0 0 0
2728	837977 11 0 0 0 0 1 0 0 0 0
2737	837988 55 0 0 0 0 5 0 0 0 0
2738	838043 55 0 0 0 0 5 0 0 0 0
2748	838098 11 0 0 0 0 1 0 0 0 0
2757	838109 55 0 0 0 0 5 0 0 0 0
2758	838164 55 0 0 0 0 5 0 0 0 0
2768	838219 11 0 0 0 0 1 0 0 0 0
2792	838230 55 0 0 0 0 5 0 0 0 0
2793	838285 55 0 0 0 0 5 0 0 0 0
2803	838340 11 0 0 0 0 1 0 0 0 0
2812	838351 55 0 0 0 0 5 0 0 0 0
2813	838406 55 0 0 0 0 5 0 0 0 0
2849	838461 55 0 0 0 0 5 0 0 0 0
2850	838516 55 0 0 0 0 5 0 0 0 0
2860	838571 11 0 0 0 0 1 0 0 0 0
2869	838582 55 0 0 0 0 5 0 0 0 0
2870	838637 55 0 0 0 0 5 0 0 0 0
2906	838692 55 0 0 0 0 5 0 0 0 0
2907	838747 55 0 0 0 0 5 0 0 0 0
2917	838802 11 0 0 0 0 1 0 0 0 0
2926	838813 55 0 0 0 0 5 0 0 0 0
2927	838868 55 0 0 0 0 5 0 0 0 0
2963	838923 55 0 0 0 0 5 0 0 0 0
2964	838978 55 0 0 0 0 5 0 0 0 0
2974	839033 11 0 0 0 0 1 0 0 0 0
2983	839044 55 0 0 0 0 5 0 0 0 0
2984	839099 55 0 0 0 0 5 0 0 0 0
3020	839154 55 0 0 0 0 5 0 0 0 0
3021	839209 55 0 0 0 0 5 0 0 0 0
3031	839264 11 0 0 0 0 1 0 0 0 0
3040	839275 55 0 0 0 0 5 0 0 0 0
3041	839330 55 0 0 0 0 5 0 0 0 0
3077	839385 55 0 0 0 0 5 0 0 0 0
3078	839440 55 0 0 0 0 5 0 0 0 0
3088	839495 11 0 0 0 0 1 0 0 0 0
3097	839506 55 0 0 0 0 5 0 0 0 0
3098	839561 55 0 0 0 0 5 0 0 0 0

